! GRI-Mech Version 3.0 7/30/99  CHEMKIN-II format
!!!!
!
! WITH A BUNCH OF LINES CUT OUT BECAUSE CK2YAML DIDN'T LIKE THEM
!
!!!!!
ELEMENTS
O  H  C N   
END
SPECIES
H2
O2
CO2
H2O2
HO2
H2O
CH4
CH3
CH2O
OH
CO  
CH3CHO
C
CH
CH2
CH2(S)
H
O
HCO
CH2OH
CH3O
CH3OH
C2H2
C2H3
C2H4
C2H6
C2H
HCCO
CH2CO
HCCOH
C3H7
C3H8
CH2CHO
C2H5   
N2                               
N
NH  
NH2   
NH3   
NNH 
NO    
NO2 
N2O     
HNO
CN 
HCN
H2CN     
HCNO  
HOCN 
HNCO    
NCO       
END
!THERMO
! Insert GRI-Mech thermodynamics here or use in default file
!END
REACTIONS
O+O+M=O2+M			1.2E17		-1.0		0.0
O+H+M=OH+M			5.E17		-1.0		0.0
O+H2=H+OH			3.87E4		 2.7		6260.
O+HO2=OH+O2			2.E13		 0.0		0.0
O+H2O2=OH+HO2			9.63E6		 2.0		4000.
O+CH=H+CO			5.7E13		 0.0		0.0
O+CH2=H+HCO			8.0E13		 0.0		0.0
O+CH3=H+CH2O			5.06E13		 0.0		0.0
O+CH4=OH+CH3			1.02E9		 1.5		8600.
O+CO+M=CO2+M			1.8E10           0.0		2385.
O+HCO=OH+CO			3.E13		 0.0		0.0
O+HCO=H+CO2			3.E13		 0.0		0.0
O+CH2O=OH+HCO			3.9E13           0.0		3540.
O+CH2OH=OH+CH2O			1.E13		 0.0		0.0
O+CH3O=OH+CH2O			1.E13		 0.0		0.0
O+CH3OH=OH+CH2OH		3.88E5		 2.5		3100.
O+CH3OH=OH+CH3O			1.3E5		 2.5		5000.
O2+CO=O+CO2			2.5E12           0.0		47800.
O2+CH2O=HO2+HCO			1.E14            0.0		40000.
H+O2+M=HO2+M			2.8E18		-0.86		0.0
H+O2+O2=HO2+O2			2.08E19		-1.24		0.0
H+O2+H2O=HO2+H2O		11.26E18	-0.76		0.0
H+O2=O+OH			2.65E16		-0.6707		17041.
H+H+M=H2+M			1.E18		-1.0		0.0
H+H+H2=H2+H2			9.E16		-0.6		0.0
H+H+H2O=H2+H2O			6.E19		-1.25		0.0
H+H+CO2=H2+CO2			5.5e20		-2.0		0.0
H+OH+M=H2O+M			2.2E22		-2.0		0.0
H+HO2=O+H2O			3.97E12          0.0		671.0
H+HO2=O2+H2			4.48E13          0.0		1068.
H+HO2=OH+OH			0.84E14          0.0		635.
H+H2O2=HO2+H2			1.21E7		 2.0		5200.
H+H2O2=OH+H2O			1.E13            0.0		3600.
H+CH=C+H2			1.65E14		 0.0		0.0
H+CH2+M=CH3+M			6.E14		 0.0		0.0
H+CH3+M=CH4+M			13.9E15		-0.534		536.
H+CH4=CH3+H2			6.6E8		 1.62		10840.
H+HCO+M=CH2O+M			1.09E12		 0.48		-260
H+HCO=H2+CO			7.34e13		 0.0		0.0
H+CH2O+M=CH2OH+M		5.4E11		 0.454		3600.
H+CH2O+M=CH3O+M			5.4e11		 0.454		2600.
H+CH2O=HCO+H2			5.74E7		 1.9		2742.
H+CH2OH+M=CH3OH+M		1.055E12	 0.5		86.
H+CH2OH=H2+CH2O			2.E13		 0.0		0.0
H+CH2OH=OH+CH3			1.65E11		 0.65		-284
H+CH3O+M=CH3OH+M		2.43e12		 0.515		50.
H+CH3O=H+CH2OH			4.15e7		 1.63		1924.
H+CH3O=H2+CH2O			2.E13		 0.0		0.0
H+CH3O=OH+CH3			1.5e12		 0.5		-110
H+CH3OH=CH2OH+H2		1.70e7		 2.1		4870.
H+CH3OH=CH3O+H2			4.20e6		 2.1		4870.
H2+CO+M=CH2O+M			4.3e7		 1.5		79600.
OH+H2=H+H2O			2.16e8		 1.51		3430.
OH+OH+M=H2O2+M			7.4e13		-0.37		0.0
OH+OH=O+H2O			3.57e4		 2.4		-2110
OH+HO2=O2+H2O			1.45e13          0.0		-500
OH+H2O2=HO2+H2O			2.00e12          0.0		427.
OH+C=H+CO			5.00e13		 0.0		0.0
OH+CH=H+HCO			3.00e13		 0.0		0.0
OH+CH2=H+CH2O			2.00e13		 0.0		0.0
OH+CH2=CH+H2O			1.13e7		 2.0		3000.00
OH+CH3+M=CH3OH+M		2.79e18		-1.43		1330.00
OH+CH3=CH2+H2O			5.60e7		 1.6		5420.000
OH+CH4=CH3+H2O			1.0e8		 1.6		3120.000
OH+CO=H+CO2			4.76e7		 1.228		70.0000
OH+HCO=H2O+CO			5.00e13		 0.0		0.0
OH+CH2O=HCO+H2O			3.43E9		 1.18		-447
OH+CH2OH=H2O+CH2O		5.00e12		 0.0		0.0
OH+CH3O=H2O+CH2O		5.0e12		 0.0		0.0
OH+CH3OH=CH2OH+H2O		1.44e6		 2.0		-840
OH+CH3OH=CH3O+H2O		6.3E6		 2.0		1500.
HO2+HO2=O2+H2O2			1.3E11           0.0		-1630
HO2+CH2=OH+CH2O			2.E13		 0.0		0.0
HO2+CH3=O2+CH4			1.E12		 0.0		0.0
HO2+CH3=OH+CH3O			3.78E13		 0.0		0.0
HO2+CO=OH+CO2			1.5E14           0.0		23600.
HO2+CH2O=HCO+H2O2		5.6E6		 2.0		12000.
C+O2=O+CO			5.8E13           0.0		576.
CH+O2=O+HCO			6.71E13		 0.0		0.0
CH+H2=H+CH2			1.08E14          0.0		3110.
CH+H2O=H+CH2O			5.71E12          0.0		-755
CH+CO2=HCO+CO			1.9E14           0.0		15792.
CH2+O2=OH+H+CO			5.E12            0.0		1500.
CH2+H2=H+CH3			5.e5		 2.0		7230.
CH2+CH4=CH3+CH3			2.46e6		 2.0		8270.
CH3+O2=O+CH3O			3.56E13          0.0		30480.
CH3+O2=OH+CH2O			2.31E12          0.0		20315.
CH3+H2O2=HO2+CH4		2.45E4		 2.47		5180.
CH3+HCO=CH4+CO			2.648E13	 0.0		0.0
CH3+CH2O=HCO+CH4		3.32e3		 2.81		5860.
CH3+CH3OH=CH2OH+CH4		3.E7		 1.5		9940.
CH3+CH3OH=CH3O+CH4		1.E7		 1.5		9940.
HCO+H2O=H+CO+H2O		1.5E18		-1.0		17000.
HCO+M=H+CO+M			1.87E17		-1.0		17000.
HCO+O2=HO2+CO			13.45E12         0.0		400.
CH2OH+O2=HO2+CH2O		1.8E13           0.0		900.
CH3O+O2=HO2+CH2O		1.8E13         0.0		900.
O+CH3=H+H2+CO			3.37E13		 0.0		0.0
OH+CH3=H2+CH2O			8.E9		 0.5		-1755
CH+H2+M=CH3+M			1.97E12		 0.43		-370
CH2+O2=H+H+CO2			5.8E12           0.0		1500.
END
