!----------------------------------------------------------------------------------------------------!
!  REACTION MECHANISM OF:                                                                            !
!                                                                                                    !
! Experimental and modelling study of speciation and benzene formation pathways in premixed 1-hexene !
! flames                                                                                             !  
! A. Nawdiyal, N. Hansen, T. Zeuch, L.Seidel, F. Mauss                                                         !
!                                                                                                    !
!                                                                                                    !
!----------------------------------------------------------------------------------------------------!
!                                                                                                    !
! NAME IN THE MECHANISM FOR THE FUEL MOLECULES:                                                      !
! 1-hexene  : C6H12-D1                                                                               !
!                                                                                                    !
!                                                                                                    !
!----------------------------------------------------------------------------------------------------!
ELEMENTS
  C  H  O  N AR
END
SPECIES 
C
AR 
A1 
A1- 
A1C2H 
A1C2H-M
A1CH2 
A1CH2OH 
A1CH3 
A1CHO 
A1CO 
C-2-C4H8 
CYC6H4 
CH2CH2COCH3
C2H 
C2H2 
C2H3 
C2H4 
C2H4O1-2
C2H4O2H
C2H5 
C2H5CHO
C2H5CO
C2H5COCH2
C2H5O 
C2H5OH 
C2H5O2
C2H5O2H
C2H6 
C2O 
C3H2 
C3H3 
C3H4 
C3H4P 
C3H5 
C3H6 
C3H6CHO-1
C3H6COCH3-1
C3H8 
C4H 
C4H10 
C4H2 
C4H4 
C4H6 
C4H612 
C4H8-1 
C4H8-2 
C4H9-1 
C4H9-2 
C5H2 
C5H3 
OCYC5H4 
OHCYC5H4- 
CYC5H5- 
OCYC5H5 
CYC5H6
I-A-C5H10
I-A-C5H9P
I-A-C5H9S
I-A-C5H8
C6H 
C6H10 
C6H2 
C6H3 
C6H4-1 
OA1 
OHA1 
C6H6-1 
C6H8 
C6H9-1 
C6H9-2 
CH 
CH2-1 
CH2-3 
CH2CH2OH
CH2CH2CHO 
CH2CHO 
CH2CO 
CH2O 
CH2OH 
CH3 
CH3CHO 
CH3CHCO
CH3CHOH 
CH3CO 
CH3O 
CH3O2 
CH3O2H 
CH3OH 
CH4 
CO 
CO2 
H 
H2 
H2C4O 
H2O 
H2O2 
HCCO 
HCO 
HO2 
HO2CHO
HOCHO
HOCH2O
OHA1CH3-O 
I-C3H7 
N-C3H7CO
N-C3H7CHO
I-C4H3 
I-C4H5 
I-C4H9 
I-C4H10 
I-C6H5 
I-C6H7 
N-C3H7 
N-C3H7O
N-C3H7O2
N-C3H7O2H
N-C4H3 
N-C4H5 
N-C6H7 
O 
O2 
O2CHO
OCHO
OA1CH3-O 
OH 
TOLA2 
N-C6H5 
C-C6H7 
A1C2H2-R1 
A1C2H2-R2 
A1C2H-O 
N2 
C3H5O 
C2H3CHO 
T-C4H9 
CH3CO3 
CH3CO3H
I-C3H7O 
I-C3H7O2 
I-C3H7O2H 
I-C4H9O2 
I-C4H9O2H 
T-C4H9O2 
T-C4H9O2H 
I-C4H8 
I-C4H9O 
I-C3H7CHO 
I-C4H7 
C2H3CO 
CH3CO2 
T-C4H9O 
I-C4H7O 
I-C4H8O2H-I 
I-C4H8O2H-T 
CC4H8O 
I-C4H8O 
C3H5-T 
I-C4H7OH 
I-C3H5CHO 
CH3COCH2 
I-C4H6OH 
I-C4H7CO 
CH3COCH3 
I-C3H5CO 
T-C3H6OH 
T-C4H8O2H-I 
I-C4H8OH 
IO2C4H8OH 
!Soot
A1C2HAC
A2
A2-X
A2R5
A2R5-
A2R5C2H
A3R5
A3R5-
ANC2HAC
A2R5C2H-
A1CH3-M
OA1CH3-M
OHA1CH3-M
A1M1OH3-
C5H11-1
C4H7P-1
C4H7S-1 
FC6H6 !Fulvene 
!---------------------------------------------------------!
!cylohexane Species
!---------------------------------------------------------!
CYC6H11       
CYC6H10       
CYC6H9
CYC6H8
CYC6H7
CYC6H12       
!---------------------------------------------------------!
!1-hexene species
!---------------------------------------------------------!
C4H5O-D1K4R4
C4H5O-D1K3R4
C4H6O-D1K3
C4H6O-D1K4
C5H7-D1D4R3
C5H7O-D1K3R5
C5H7O-D1K5R5
C5H7O-D1K4R5
C5H8-D1D3       
C5H8-D1D4
C5H8O-D1K5
C5H9-D1R3
C5H9-D1R4
C5H9-D1R5
C5H10-1  
C5H10-2       
C5H11-2 
C5H11-3 
C6H9-D1D3R6
C6H9-D1D3R5
C6H9-D1D5R3
C6H10-D1D3
C6H10-D1D4
C6H10O-D1E45
C6H10O-D1E35
C6H10O-D1E34
C6H10O-D1E36
C6H10O-D1E46
C6H10O-D1E56
C6H10O3-D1K3HP4
C6H10O3-D1K3HP5
C6H10O3-D1K3HP6
C6H10O3-D1K4HP3
C6H10O3-D1K4HP5
C6H10O3-D1K4HP6
C6H10O3-D1K5HP3
C6H10O3-D1K5HP4 
C6H10O3-D1K5HP6 
C6H10O3-D1K6HP3
C6H10O3-D1K6HP4
C6H10O3-D1K6HP5
C6H11-D1R3
C6H11-D1R4
C6H11-D1R5
C6H11-D1R6
C6H11O-D1O3
C6H11O-D1O4
C6H11O-D1O5
C6H11O-D1O6
C6H11O2-D1P3
C6H11O2-D1P4
C6H11O2-D1P5
C6H11O2-D1P6
C6H11O2-D1HP3R4
C6H11O2-D1HP3R5
C6H11O2-D1HP3R6
C6H11O2-D1HP4R3
C6H11O2-D1HP4R5
C6H11O2-D1HP4R6
C6H11O2-D1HP5R3 
C6H11O2-D1HP5R4
C6H11O2-D1HP5R6 
C6H11O2-D1HP6R3
C6H11O2-D1HP6R4
C6H11O2-D1HP6R5
C6H11O2H-D1HP3
C6H11O2H-D1HP4  
C6H11O2H-D1HP5
C6H11O2H-D1HP6
C6H11O4-D1HP3P4 
C6H11O4-D1HP3P5
C6H11O4-D1HP3P6
C6H11O4-D1HP4P3
C6H11O4-D1HP4P5
C6H11O4-D1HP4P6
C6H11O4-D1HP5P3
C6H11O4-D1HP5P4
C6H11O4-D1HP5P6
C6H11O4-D1HP6P3
C6H11O4-D1HP6P4
C6H11O4-D1HP6P5
C6H12-d1     
END
REACTIONS
!--------------------------------------------------------------------------------------!
!THE "BASE" MECHANISM START HERE, BASED ON HOYERMANN MECHANISM 
!--------------------------------------------------------------------------------------!
!"KNALLGAS"-CHEMISTRY
!--------------------------------------------------------------------------------------!
 H+O2=O+OH                                       2.000E+14    0.00   1.679E+04 ! BAU92
 O+H2=H+OH                                       5.100E+04    2.67   6.282E+03 ! BAU92 
 OH+H2=H+H2O                                     1.000E+08    1.60   3.296E+03 ! BAU92 
 OH+OH=O+H2O                                     1.500E+09    1.14   1.003E+02 ! BAU92 
 H+O2+M=HO2+M                                    2.300E+18   -0.80   0.000E+00 ! MAS88A 
  CO/ 1.406/CO2/ 2.81/H2O/ 12.18/CH4/12.81/C2H6/12.16/H2/1.86/ ! 
 H+HO2=OH+OH                                     1.500E+14    0.00   1.003E+03 ! MAS88A 
 H+HO2=H2+O2                                     2.500E+13    0.00   6.927E+02 ! MAS88A 
 H+HO2=O+H2O                                     3.000E+13    0.00   1.720E+03 ! BAU92 
 O+HO2=OH+O2                                     1.800E+13    0.00  -4.060E+02 ! MAS88A 
 OH+HO2=H2O+O2                                   2.890E+13    0.00  -4.999E+02 ! CURRAN2002 
 HO2+HO2=H2O2+O2                                 4.200E+14    0.00   1.199E+04 ! BAU94  
 DUPLICATE
 HO2+HO2=H2O2+O2                                 2.500E+11    0.00  -1.242E+03 ! MAS88A 
 DUPLICATE
 OH+OH(+M)=H2O2(+M)                              1.236E+14   -0.37   0.000E+00 ! CURRAN2002 
      LOW /   3.041E+30   -4.63   2.049E+03   /                                 
      TROE /    0.47  1.000E+02  2.000E+03  1.000E+15 /                         
 CO/ 1.90/CO2/ 3.80/H2/ 2.50/H2O/12.00/                                         
 H+H2O2=HO2+H2                                   1.700E+12    0.00   3.750E+03 ! BAU92 
 H+H2O2=OH+H2O                                   1.000E+13    0.00   3.583E+03 ! BAU92 
 O+H2O2=OH+HO2                                   2.800E+13    0.00   6.401E+03 ! MAS88A 
 OH+H2O2=HO2+H2O                                 5.400E+12    0.00   1.003E+03 ! MAS88A 
 H+H+M=H2+M                                      1.800E+18   -1.00   0.000E+00 ! BAU92 
 CO/ 0.75/CO2/ 1.50/H2O/ 6.50/O2/ 0.40/AR/ 0.35/N2/ 0.40/                       
 H+OH+M=H2O+M                                    2.200E+22   -2.00   0.000E+00 ! MAS88A 
 CO/ 0.75/CO2/ 1.50/H2O/ 6.50/O2/ 0.40/AR/ 0.35/N2/ 0.40/                       
 O+O+M=O2+M                                      2.900E+17   -1.00   0.000E+00 ! BAU92 
 CO/ 0.75/CO2/ 1.50/H2O/ 6.50/O2/ 0.40/AR/ 0.35/N2/ 0.40/ 
!--------------------------------------------------------------------------------------!
!CO/CO2 REACTIONS
!--------------------------------------------------------------------------------------!
 OH+CO=H+CO2                                     6.000E+06    1.50  -7.404E+02 ! CHE93
 HO2+CO=OH+CO2                                   1.500E+14    0.00   2.357E+04 ! WAR84 
 O+CO+M=CO2+M                                    7.100E+13    0.00  -4.538E+03 ! WES88A 
 CO/ 0.75/CO2/ 1.50/H2O/ 6.50/O2/ 0.40/AR/ 0.35/N2/ 0.40/
 CO+O2=O+CO2                                     2.500E+12    0.00   4.777E+04 ! MAS88A
!--------------------------------------------------------------------------------------!
!C REACTIONS
!--------------------------------------------------------------------------------------!
 H+CH=C+H2                                       1.500E+14    0.00   0.000E+00 ! THO86
 C+O2=O+CO                                       5.000E+13    0.00   0.000E+00 ! THO86
!--------------------------------------------------------------------------------------!
!CH REACTIONS
!--------------------------------------------------------------------------------------!
 O+CH=H+CO                                       4.000E+13    0.00   0.000E+00 ! BAU92 
 CH+O2=O+HCO                                     3.000E+13    0.00   0.000E+00 ! MAS88B 
 CH+CO2=HCO+CO                                   3.400E+12    0.00   6.927E+02 ! BAU92 
 CH+H2O=OH+CH2-3                                 1.100E+12    0.00  -7.643E+02 ! BAU92 
 CH+H2O=H+CH2O                                   4.600E+12    0.00  -7.643E+02 ! BAU92 
 OH+CH=H+HCO                                     3.000E+13    0.00   0.000E+00 ! MIL89 
!--------------------------------------------------------------------------------------!
!HCO REACTIONS
!--------------------------------------------------------------------------------------!
 HCO+M=H+CO+M                                    7.100E+14    0.00   1.679E+04 ! WAR84 
 CO/ 0.75/CO2/ 1.50/H2O/ 6.50/O2/ 0.40/AR/ 0.35/N2/ 0.40/                       
 H+HCO=CO+H2                                     9.000E+13    0.00   0.000E+00 ! BAU92
 O+HCO=OH+CO                                     3.000E+13    0.00   0.000E+00 ! BAU92 
 O+HCO=H+CO2                                     3.000E+13    0.00   0.000E+00 ! BAU92 
 OH+HCO=CO+H2O                                   1.000E+14    0.00   0.000E+00 ! BAU92 
 HCO+O2=HO2+CO                                   1.548E+04    2.38  -1.529E+03 ! HSU96
 HCO+HCO=CH2O+CO                                 3.000E+13    0.00   0.000E+00 ! BAU92 
!--------------------------------------------------------------------------------------!
!CH2-3 REACTIONS 
!--------------------------------------------------------------------------------------!
 H+CH2-3=CH+H2                                   6.000E+12    0.00  -1.791E+03 ! BAU92 
 O+CH2-3=>H+H+CO                                 8.400E+12    0.00   0.000E+00 ! CHE93 
 CH2-3+O2=H+OH+CO                                1.650E+21   -3.30   2.866E+03 ! DOM92 MOD ZEU03
 CH2-3+O2=CO2+H2                                 2.630E+21   -3.30   2.866E+03 ! DOM92 MOD ZEU03
 CH2-3+O2=CO+H2O                                 2.240E+22   -3.30   2.866E+03 ! DOM92 MOD ZEU03
 CH2-3+O2=O+CH2O                                 3.290E+21   -3.30   2.866E+03 ! DOM92 MOD ZEU03
 CH2-3+O2=H+H+CO2                                3.290E+21   -3.30   2.866E+03 ! DOM92 MOD ZEU03
 CH2-3+CH2-3=C2H2+H2                             1.200E+13    0.00   8.121E+02 ! BAU92 
 CH2-3+CH2-3=H+H+C2H2                            1.100E+14    0.00   8.121E+02 ! BAU92 
 CH2-3+CH3=H+C2H4                                4.200E+13    0.00   0.000E+00 ! BAU92 
!--------------------------------------------------------------------------------------!
!CH2-1 REACTIONS 
!--------------------------------------------------------------------------------------!
 CH2-1+M=CH2-3+M                                 9.000E+12    0.00   0.000E+00 ! BAU92 MOD ZEU03
 CO/ 0.75/CO2/ 1.50/H2O/ 6.50/O2/ 0.40/AR/ 0.35/N2/ 0.40/                       
 CH2-1+H2=H+CH3                                  7.000E+13    0.00   0.000E+00 ! BAU92 
 CH2-1+O2=H+OH+CO                                3.100E+13    0.00   0.000E+00 ! CHE93 
!--------------------------------------------------------------------------------------!
!CH2O REACTIONS
!--------------------------------------------------------------------------------------!
 CH2O+M=H+HCO+M                                  5.000E+16    0.00   7.643E+04 ! CHE93 
 CO/ 0.75/CO2/ 1.50/H2O/ 6.50/O2/ 0.40/AR/ 0.35/N2/ 0.40/                       
 H+CH2O=HCO+H2                                   3.200E+10    1.05   3.272E+03 ! BAU92
 O+CH2O=OH+HCO                                   4.200E+11    0.57   2.771E+03 ! BAU92 
 CH2O+CH3=HCO+CH4                                1.000E+11    0.00   6.091E+03 ! WAR94 
 OH+CH2O=HCO+H2O                                 6.022E+12    0.00   0.000E+00 ! DEM97 
 HO2+CH2O=H2O2+HCO                               4.124E+04    2.50   1.020E+04 ! EIT98 
 CH2O+O2=HO2+HCO                                 6.000E+13    0.00   4.077E+04 ! BAU92 
!--------------------------------------------------------------------------------------!
!CH3 REACTIONS
!--------------------------------------------------------------------------------------!
 CH3+M=H+CH2-3+M                                 1.000E+16    0.00   9.052E+04 ! BAU92 
 CO/ 0.75/CO2/ 1.50/H2O/ 6.50/O2/ 0.40/AR/ 0.35/N2/ 0.40/                       
 CH3+M=CH+H2+M                                   6.900E+14    0.00   8.240E+04 ! MAR92 
 CO/ 0.75/CO2/ 1.50/H2O/ 6.50/O2/ 0.40/AR/ 0.35/N2/ 0.40/                       
 O+CH3=H+CH2O                                    4.600E+13    0.00   0.000E+00 ! ZEU03
 O+CH3=H+CO+H2                                   3.800E+13    0.00   0.000E+00 ! ZEU03 
 CH3+O2=OH+CH2O                                  3.400E+11    0.00   8.933E+03 ! BAU92 
 OH+CH3=H+CH3O                                   1.260E+14    0.00   1.548E+04 ! SLO89 
 HO2+CH3=OH+CH3O                                 1.800E+13    0.00   0.000E+00 ! BAU92 
 H+CH3(+M)=CH4(+M)                               1.26E+14     0.00   0.000E+00 ! CEC92
      LOW /   1.07E+24   -1.80   0.000E+00   /                                 
      TROE /    0.42  2.370E+03  1.000E+00  1.000E+15 / 
 H2O/6.0/H2/1.0/CO2/1.5/CO/0.75/CH4/0.7/AR/0.35/N2/0.01/O2/0.40/  
 CH3+CH3=C2H6                                    1.690E+53  -12.00   1.940E+04 ! WAR84 ALL VALUES OBTAINED FROM KASSEL 
  PLOG/2.66E-2 3.230E+58  -14.00   1.959E+04/
  PLOG/1.20E-1 2.630E+57  -13.50   1.930E+04/
  PLOG/1.00E0  1.690E+53  -12.00   1.940E+04/
  PLOG/3.00E0  1.320E+49  -10.70   1.808E+04/
  PLOG/9.00E0  8.320E+43   -9.10   1.600E+04/
  PLOG/2.00E1  1.840E+39   -7.70   1.381E+04/
  PLOG/5.00E1  3.370E+33   -6.00   1.081E+04/
 CH3+CH3=>C2H4+H2                                2.000E+16    0.00   3.201E+04 ! WAR84  
 HO2+CH3=CH4+O2                                  0.900E+13    0.00   0.000E+00 ! MOD TZ
!--------------------------------------------------------------------------------------!
!CH3O REACTIONS
!--------------------------------------------------------------------------------------!
 CH3O(+M)=H+CH2O(+M)                             5.450E+13    0.00   1.350E+04 ! CURRAN2002 
      LOW /   2.344E+25   -2.70   3.060E+04   /                                 
 CO/ 1.90/CO2/ 3.80/H2/ 2.50/H2O/12.00/
 H+CH3O=CH2O+H2                                  1.800E+13    0.00   0.000E+00 ! BAU92 
 CH3O+O2=HO2+CH2O                                4.000E+10    0.00   2.126E+03 ! BAU92 
 CH2O+CH3O=>HCO+CH3OH                            6.000E+11    0.00   3.296E+03 ! WES88 
 HCO+CH3OH=>CH2O+CH3O                            6.500E+09    0.00   1.366E+04 ! WES88 
 O+CH3O=CH3+O2                                   1.100E+13    0.00   0.000E+00 ! BAU92 
 O+CH3O=OH+CH2O                                  1.400E+12    0.00   0.000E+00 ! BAU92 
!--------------------------------------------------------------------------------------!
!CH2OH REACTIONS
!--------------------------------------------------------------------------------------!
 CH2OH+M=H+CH2O+M                                5.000E+13    0.00   2.508E+04 ! WAR84 
 CO/ 0.75/CO2/ 1.50/H2O/ 6.50/O2/ 0.40/AR/ 0.35/N2/ 0.40/                       
 H+CH2OH=CH2O+H2                                 3.000E+13    0.00   0.000E+00 ! WAR84 
 CH2OH+O2=HO2+CH2O                               1.000E+13    0.00   7.165E+03 ! WAR84 
!--------------------------------------------------------------------------------------!
!CH3O2 REACTIONS
!--------------------------------------------------------------------------------------!
 CH3O2+M=>CH3+O2+M                               7.240E+16    0.00   2.654E+04 ! WES88
  CO/ 0.75/CO2/ 1.50/H2O/ 6.50/O2/ 0.40/AR/ 0.35/N2/ 0.40/                       
 CH3+O2+M=>CH3O2+M                               1.410E+16    0.00  -1.099E+03 ! WES88 
  CO/ 0.75/CO2/ 1.50/H2O/ 6.50/O2/ 0.40/AR/ 0.35/N2/ 0.40/                       
 CH2O+CH3O2=>HCO+CH3O2H                          1.300E+11    0.00   9.004E+03 ! WES88 
 HCO+CH3O2H=>CH2O+CH3O2                          2.500E+10    0.00   1.010E+04 ! WES88 
 CH3+CH3O2=>CH3O+CH3O                            3.800E+12    0.00  -1.194E+03 ! WES88 
 CH3O+CH3O=>CH3+CH3O2                            2.000E+10    0.00   0.000E+00 ! WES88 
 HO2+CH3O2=>CH3O2H+O2                            4.600E+10    0.00  -2.603E+03 ! WES88
 CH3O2H+O2=>HO2+CH3O2                            3.000E+12    0.00   3.900E+04 ! WES88 
 CH3O2+CH3O2=>CH2O+CH3OH+O2                      1.800E+12    0.00   0.000E+00 ! WES88 
 CH3O2+CH3O2=>CH3O+CH3O+O2                       3.700E+12    0.00   2.197E+03 ! WES88
!--------------------------------------------------------------------------------------!
!CH4 REACTIONS
!--------------------------------------------------------------------------------------!
 H+CH4=CH3+H2                                    1.300E+04    3.00   8.981E+03 ! BAU92 
 O+CH4=OH+CH3                                    6.923E+08    1.56   8.479E+03 ! BAU92 
 OH+CH4=CH3+H2O                                  1.600E+07    1.83   2.771E+03 ! BAU92 
 HO2+CH4=H2O2+CH3                                1.100E+13    0.00   2.463E+04 ! CHE93 
 CH2-3+CH4=CH3+CH3                               1.300E+13    0.00   9.530E+03 ! DOB85 
 CH+CH4=H+C2H4                                   3.000E+13    0.00  -4.060E+02 ! BER83 
!--------------------------------------------------------------------------------------!
!CH3OH REACTIONS
!--------------------------------------------------------------------------------------!
 OH+CH3(+M)=CH3OH(+M)                            2.790E+18   -1.40   1.330E+03 ! LI07
                 LOW / 4.00E+36    -5.92   3.14E+03 /
                 TROE / 0.412 1.95E+02 5.90E+03 6.39E+03 /
                 CO/ 1.50/CO2/ 2.0/H2/ 2.00/H2O/6.00/CH4/ 2.0/ 

 H+CH2OH(+M)=CH3OH(+M)                           1.060E+12    0.50   8.600E+01 ! LI07
                  LOW / 4.36E+31   -4.65   5.08E+03 /
                  TROE / 0.6 1.00E+02 9.00E+04 1.00E+04 /
                  CO/ 1.50/CO2/ 2.0/H2/ 2.00/H2O/6.00/CH4/ 2.0/ 
 H+CH3O(+M)=CH3OH(+M)                            2.430E+12    0.50   5.000E+01 ! LI07
                  LOW / 4.66E+41   -7.44   1.41E+04 /
                  TROE / 0.7 1.00E+02 9.00E+04 1.00E+04 /
                  CO/ 1.50/CO2/ 2.0/H2/ 2.00/H2O/6.00/CH4/ 2.0/ 
 CH3OH+H=CH2OH+H2                                 3.200E+13    0.00   6.100E+03 ! LI07
 CH3OH+H=CH3O+H2                                  8.000E+12    0.00   6.100E+03 ! LI07
 CH3OH+O=CH2OH+OH                                 3.880E+05    2.50   3.080E+03 ! LI07
 CH3OH+OH=CH3O+H2O                                1.000E+06    2.10   4.970E+02 ! LI07
 CH3OH+OH=CH2OH+H2O                               7.100E+06    1.80  -5.960E+02 ! LI07
 CH3OH+O2=CH2OH+HO2                               2.050E+13    0.00   4.490E+04 ! LI07
 CH3OH+HCO=CH2OH+CH2O                             9.640E+03    2.90   1.310E+04 ! LI07
 CH3OH+HO2=CH2OH+H2O2                             3.980E+13    0.00   1.940E+04 ! LI07
 CH3OH+CH3=CH2OH+CH4                              3.190E+01    3.20   7.170E+03 ! LI07
 CH3O+CH3OH=CH3OH+CH2OH                           3.000E+11    0.00   4.060E+03 ! LI07
!--------------------------------------------------------------------------------------!
!CH3O2H REACTIONS
!--------------------------------------------------------------------------------------!
 CH3O2H=OH+CH3O                                  4.000E+15    0.00   4.311E+04 ! BAU92 
 OH+CH3O2H=CH3O2+H2O                             2.600E+12    0.00   0.000E+00 ! CHE93 
!--------------------------------------------------------------------------------------!
!C2H REACTIONS
!--------------------------------------------------------------------------------------!
 O+C2H=CH+CO                                     1.000E+13    0.00   0.000E+00 ! BAU92 
 C2H+O2=O+HCCO                                   3.000E+13    0.00   0.000E+00 ! TSA86 
!--------------------------------------------------------------------------------------!
!HCCO REACTIONS
!--------------------------------------------------------------------------------------!
 HCCO=CH+CO                                      5.000E+15    0.00   5.876E+04 ! FRA88 
 H+HCCO=CH2-3+CO                                 1.450E+14    0.00   0.000E+00 ! BAU92 
 O+HCCO=>H+CO+CO                                 9.600E+13    0.00   0.000E+00 ! BAU92 
 HCCO+O2=>H+CO+CO2                               6.000E+12    0.00   8.598E+02 ! BAU92 MOD ZEU03
 HCCO+CH=C2H2+CO                                 3.000E13     0.00   0.000E+00 ! GRI 3.0
 HCCO+CH2-1=C2H3+CO                              3.000E13     0.00   0.000E+00 ! GRI 3.0
 HCCO+HCCO=C2H2+CO+CO                            1.000E13     0.00   0.000E+00 ! GRI 3.0 
!--------------------------------------------------------------------------------------!
!C2H2 REACTIONS
!--------------------------------------------------------------------------------------!
 C2H2+M=H+C2H+M                                  3.600E+16    0.00   1.065E+05 ! FRA88 
 CO/ 0.75/CO2/ 1.50/H2O/ 6.50/O2/ 0.40/AR/ 0.35/N2/ 0.40/                       
 H+C2H2=C2H+H2                                   6.030E+13    0.00   2.780E+04 ! BAU92
 OH+C2H2=C2H+H2O                                 9.000E+13    0.00   1.295E+04 ! BAU92 MOD ZEU03
 O+C2H2=CH2-3+CO                                 2.000E+06    2.10   1.562E+03 ! BAU94 MOD ZEU03
 O+C2H2=H+HCCO                                   5.200E+06    2.10   1.562E+03 ! BAU94 MOD ZEU03
 C2H2+O2=OH+HCCO                                 2.000E+08    1.50   3.009E+04 ! MIL82 
 C2H+C2H2=H+C4H2                                 3.000E+14    0.00   0.000E+00 ! BAU94
 CH3+C2H2=C3H5                                   1.396E+04    2.21   16.49E+03 ! 1994DIA/LIN3923-3927 
 CH3+C2H2=C3H4+H                                 51.59E+05    0.86   22.15E+03 ! 1999DAV/LAW5889-5899 
!--------------------------------------------------------------------------------------!
!CH2CO REACTIONS
!--------------------------------------------------------------------------------------!
 CH2CO+M=CH2-3+CO+M                              1.000E+16    0.00   5.923E+04 ! WAR84 
 CO/ 0.75/CO2/ 1.50/H2O/ 6.50/O2/ 0.40/AR/ 0.35/N2/ 0.40/                       
 H+CH2CO=CH3+CO                                  1.800E+13    0.00   3.368E+03 ! BAU92 
 O+CH2CO=HCO+HCO                                 2.300E+12    0.00   1.361E+03 ! BAU92 
 OH+CH2CO=HCO+CH2O                               1.000E+13    0.00   0.000E+00 ! BAU92 
 CH2CO+O=CO2+CH2-3                               1.750E+12    0.00   1350.00   ! GRI 3.0	
 CH2CO+H=HCCO+H2                                 5.000E+13    0.00   8000.00
 CH2CO+O=HCCO+OH                                 1.000E+13    0.00   8000.00
 CH2CO+OH=HCCO+H2O                               7.500E+12    0.00   2000.00
 CH+CH2O=CH2CO+H                                 9.460E+13    0.00  -5150.00
 CH2CO+CH3=C2H5+CO                               5.000E+12    0.00   0000.00
!--------------------------------------------------------------------------------------!
!C2H3 REACTIONS
!--------------------------------------------------------------------------------------!
 C2H3(+M)=C2H2+H(+M) 2.100E+14 0.00 3.974E+04 ! Baulch CEC 1992
  LOW / 1.187E+42 -7.50 4.550E+04 /
  TROE / 0.65 1.00E+40 1.000E+00 1.000E+15 /
 CO/ 1.90/CO2/ 3.80/H2/ 2.50/H2O/12.00/
 H+C2H3=C2H2+H2                                  1.200E+13    0.00   0.000E+00 ! BAU92 
 O+C2H3=OH+C2H2                                  1.000E+13    0.00   0.000E+00 ! BAU92 
 OH+C2H3=C2H2+H2O                                5.000E+13    0.00   0.000E+00 ! BAU92 
 O+C2H3=CH3+CO                                   1.000E+13    0.00   0.000E+00 ! BAU92 
 O+C2H3=HCO+CH2-3                                1.000E+13    0.00   0.000E+00 ! BAU92 
 C2H3+O2=HCO+CH2O                                4.580E+16   -1.39   1.013E+03 ! GRI 
 C2H3+O2=O+CH2CHO                                3.030E+11    0.29   1.099E+01 ! GRI 
 C2H3+O2=HO2+C2H2                                1.337E+06    1.61  -3.838E+02 ! GRI 
!--------------------------------------------------------------------------------------!
!CH3O REACTIONS
!--------------------------------------------------------------------------------------!
 CH3CO=CH3+CO                                    2.320E+26   -5.00   1.794E+04 ! WAR84 ALL VALUES OBTAINED FROM KASSEL   
  PLOG/2.66E-2 4.130E+23   -4.70   1.603E+04/
  PLOG/1.20E-1 3.810E+24   -4.80   1.673E+04/
  PLOG/1.00E0  2.320E+26   -5.00   1.794E+04/
  PLOG/3.00E0  4.370E+27   -5.20   1.933E+04/
  PLOG/9.00E0  8.790E+28   -5.40   2.110E+04/
  PLOG/2.00E1  2.400E+29   -5.40   2.220E+04/
  PLOG/5.00E1  7.320E+29   -5.40   2.350E+04/
 H+CH3CO=CH2CO+H2                                2.000E+13    0.00   0.000E+00 ! BAU92 
!--------------------------------------------------------------------------------------!
!CH2CHO REACTIONS
!--------------------------------------------------------------------------------------!
 H+CH2CHO=CH2CO+H2                                2.000E+13    0.00   0.000E+00 ! KARB97 
 CH2CHO(+M)=CH3+CO(+M)                            2.930E+12    0.29   4.016E+04 ! Miller/Klipp see Leplat 2011
  LOW / 6.55E+37 -6.11 42436.00/	
  TROE/ 1.8 10. 500. 5200./
 CH2CHO(+M)=CH2CO+h(+m)	                          1.430E+15   -0.15   4.560E+04 ! Miller/Klipp see Leplat 2011
  LOW / 1.96E+32 -4.67 43398.00/	
  TROE/ 0.55 1E+15 1E-15 1E+15/
!--------------------------------------------------------------------------------------!
!C2H4 REACTIONS
!--------------------------------------------------------------------------------------!
 C2H4+M=C2H2+H2+M                                7.500E+17    0.00   7.949E+04 ! JUS77 
 CO/ 0.75/CO2/ 1.50/H2O/ 6.50/O2/ 0.40/AR/ 0.35/N2/ 0.40/                       
 H+C2H3=C2H4                                     8.000E+13    0.00   0.000E+00 ! FAH91 MOD ZEU03 
 H+C2H4=C2H3+H2                                  5.400E+14    0.00   1.502E+04 ! BAU92 
 OH+C2H4=C2H3+H2O                                2.200E+13    0.00   5.947E+03 ! BAU92 
 O+C2H4=H+CH2CHO                                 4.730E+06    1.88   1.827E+02 ! BAU94 
 O+C2H4=HCO+CH3                                  8.100E+06    1.88   1.827E+02 ! BAU94 
 O+C2H4=CH2CO+H2                                 6.800E+05    1.88   1.827E+02 ! BAU94 
 CH2-1+CH3=H+C2H4                                1.600E+13    0.00  -5.685E+02 ! BAU94 
!--------------------------------------------------------------------------------------!
!CH3CHO REACTIONS
!--------------------------------------------------------------------------------------!
 CH3CHO+M=HCO+CH3+M                              7.000E+15    0.00   8.188E+04 ! BAU92 
 CO/ 0.75/CO2/ 1.50/H2O/ 6.50/O2/ 0.40/AR/ 0.35/N2/ 0.40/                       
 H+CH3CHO=CH3CO+H2                               2.100E+09    1.16   2.412E+03 ! BAU92 
 H+CH3CHO=CH2CHO+H2                              2.000E+09    1.16   2.412E+03 ! BAU92 
 O+CH3CHO=OH+CH3CO                               5.000E+12    0.00   1.815E+03 ! BAU92 
 O+CH3CHO=OH+CH2CHO                              8.000E+11    0.00   1.815E+03 ! BAU92 
 OH+CH3CHO=CH3CO+H2O                             2.300E+10    0.73  -1.123E+03 ! BAU92 
 HO2+CH3CHO=H2O2+CH3CO                           3.010E+12    0.00   1.194E+04 ! BAU92
 CH3CHO+O2=HO2+CH3CO                             4.000E+13    0.00   3.924E+04 ! BAU92 
 CH2-3+CH3CHO=CH3+CH3CO                          2.500E+12    0.00   3.798E+03 ! WAR84 
 CH3+CH3CHO=CH4+CH3CO                            2.000E-06    5.64   2.460E+03 ! BAU92 
!Additional reactions 
 CH3CHO=CH3CO+H                                  5.000E+14    0.00   87900.00  ! CEC 1992
 CH3CHO=CH4+CO                                   1.000E+15    0.00   85000.00  ! Yasunaga 2008
 CH3CHO=CH2CO+H2                                 3.000E+14    0.00   84000.00  ! CEC 1992
 CH3CHO+OH=CH2CHO+H2O                            1.720E+05    2.40   815.00    ! Taylor 1996
 CH3CHO+CH3=CH2CHO+CH4                           6.000E+12    0.00   11000.00  ! Yasunaga 2008  
 CH3CHO+HO2=CH2CHO+H2O2                          1.00E+12     0.00   14000.00  ! Yasunaga 2008
!--------------------------------------------------------------------------------------!
!C2H5 REACTIONS
!--------------------------------------------------------------------------------------!
 C2H5=C2H4+H                                     2.650E+42   -9.50   5.017E+04 ! WAR84 ALL VALUES OBTAINED FROM KASSEL   
  PLOG/2.53E-2 2.650E+42   -9.50   5.017E+04/
  PLOG/1.20E-1 1.760E+43   -9.50   5.148E+04/
  PLOG/1.00E0  1.020E+43   -9.10   5.354E+04/
  PLOG/3.00E0  6.090E+41   -8.60   5.410E+04/
  PLOG/9.00E0  6.670E+39   -7.90   5.424E+04/
  PLOG/2.00E1  2.070E+37   -7.10   5.354E+04/
  PLOG/5.00E1  1.230E+34   -6.10   5.236E+04/
 CH3+C2H5=CH4+C2H4                               1.140E+12    0.00   0.000E+00 ! BAU92 
 C2H5+C2H5=C2H4+C2H6                             1.400E+12    0.00   0.000E+00 ! BAU92 