!REACTION MECHANISM
!Title: Experimental and kinetic modeling study of laminar coflow diffusion methane flames doped with iso-butanol
!Authors: Hanfeng Jin, Guoqing Wang, Yizun Wang, Yuyang Li, Fei Qi
!Correspongding: yuygli@sjtu.edu.cn, fqi@sjtu.edu.cn

ELEMENTS
O  H  C  N  AR  HE
END

SPECIES

!
!C0
 AR        N2          H          H2         O    HE
 OH        H2O        HO2         H2O2       O2   CS                                   

!C1                                                     
 C         CH        CH2        CH2*       CH3      
 CH4       CO        CO2        CH2O       HCO         
 CH2OH     CH3O      CH3OH      HOCHO      HOCH2O

!C2                                                     
 C2H       C2H2        H2CC       C2H3       C2H4  
 C2H5      C2H6        C2O        HCCO       CH2CO   
 CH3CO     CH3CHO      C2H3OH     C2H5O      CH2OCH   
 CH2OCH2   CH2CHO      HCCOH      C2H4OH     HCCHOH 
 CH2COH    CH3CHOH     sC2H4OH   C2H5OH

!C3                                                     
 C3H2      C3H3        pC3H4      aC3H4      aC3H5  
 CH3CCH2   CH3CHCH     C3H6       nC3H7      iC3H7      
 C2H3CHO   C2H5CHO     CH3CHCO    CH3COCH3    CH3COHCH3   CH3COCH2 

 iC3H6OH   C3H6OH-1  iC3H5OH   C3H5OH   CH3CHCHOH     iC3H4OH-1  iC3H4OH-2                                           
 C3H8        C3H5O    C2H5CO

!C4                                                  
 C4H2      nC4H3       iC4H3      C4H4       nC4H5      C4H
 iC4H5     C4H5-2      C4H6       C4H612     C4H6-2     C4H6-1
 SAXC4H7   C4H7        iC4H7      iC4H7-1    C4H7-2
 CH3CCHCH3 C4H81       C4H82      iC4H8      pC4H9      sC4H9   
 iC4H9     tC4H9       C4H10      iC4H10     H2C4O
 
!********************* species involved in iso-butanol submechanism ******************************
!
iC4H9OH      iC4H8OH-1      iC4H8OH-2      iC4H8OH-3  iC4H9O
C3H6OH-2     iC3H6CHOH      iC3H5CH2OH     iC3H7CHO   CH3CHCHO  CH2CH2CHO
iC3H7CO      C2H3CO         tC3H6CHO       iC3H6CHO   iC3H5CHO   CH3CHOCH2
iC3H5CO      iC4H7O         iC3H6CO        
   

 !C5                    
  cC5H4     C5H4       lC5H5      C5H5       C5H6      lC5H7   C5H52   C5H3O
  C5H2      C5H3       C5H4O      C5H5O      C5H4OH    C5H5OH

 !C6                    
  C6H2      C6H3       l-C6H4     o-C6H4     A1-   
  fulvene   A1        C4H5C2H     A1O        A1OH                                     
  n-C6H5     O-C6H4O2     P-C6H4O2          P-C6H3O2

 !C7                                                    
 C7H5        C7H6        A1CH        C6H4CH3     A1CH2       A1CH3       A1CO        
 A1CHO       A1CH2OH     OC6H4CH3    HOC6H4CH3   A1CH2O      o-C7H8      p-C7H8                                   

 !C8                                        
 A1C2H-      A1C2H       A1CHCH      A1CCH2     A1C2H3      A1CHCH3     A1CH2CH2
 A1C2H5      C6H3C2H     A1CC        A1cC2H2     C6H4C2H3                                  

 !C9                
 C9H7        C9H8        A1C3H2      C9H6O       CH2A1C2H3   CH3A1C2H3

 !C10               
 A2T1        A2T2        A1(C2H)2    A2-1        A2-2        A2    
 C10H9       C10H10      A2O-1       A2O-2      C9H7CH2     C9H6CH2     
 C2H2A1C2H   C9H8CH3     C9H7CH3     C2H4A1C2H3   A1(C2H3)2
   
 !C11               
 C11H8       A2CH2-1     A2CH3-1

 !C12               
 A2C2HB*     A2C2HA*     A2C2HA      A2C2HB      A2R5-       A2R5        
 BIPHEN      A2C2H2      P2-         P2                                                    

 !C13                           
 C13H10      BENZYLBJ    C13H12     C13H9       p-C13H10    p-C13H9

 !C14                           
 A2(C2H)2    A3-1        A3-4        A3       C14H12      C14H14      C14H13

 !C15
 A3CH2       A3CH3

 !C16
 A3C2H        A3C2H2      A4-         A4          FLTHN

 !C18
 C18H12       C18H11   BENZOF   !C18H10  CHRYSEN


END

REACTIONS
!  "*" for roll back the changes


!C2H2=2CS+H2                                    30.0       0.0        0.0     !Est. [80.0]     
!C2H2+M=2CS+H2+M                                 3.0E+18       -4.0      0.0


!!#########################################################################################################################
!!                                              submechanism of iso-butanol                                               #
!!#########################################################################################################################
!
!***************************************** C-C bond dissociation reactions ********************************************************
 iC4H9OH=>iC3H7+CH2OH                               1.0            0.0           0.0             !2012 Zhou & Klippenstein & Simmie & Curran 
            PLOG  /0.0013                          4.68E+119      -30.73        133860.2   /    !/2 to accord with that measured by Rosado-Reyes and Tsang                  
            PLOG  /0.0132                          8.65E+108      -27.23        131424.2   /    !/2 to accord with that measured by Rosado-Reyes and Tsang
            PLOG  /0.1316                          2.04E+102      -24.97        131706.3   /    !/2 to accord with that measured by Rosado-Reyes and Tsang
            PLOG  /1.0000                          5.45E+95       -22.81        131473.8   /    !/2 to accord with that measured by Rosado-Reyes and Tsang  
            PLOG  /10.000                          1.19E+83       -18.96        127108.4   /    !/2 to accord with that measured by Rosado-Reyes and Tsang
            PLOG  /100.00                          2.86E+64       -13.56        116986.6   /    !/2 to accord with that measured by Rosado-Reyes and Tsang
            DUPLICATE

 iC4H9OH=>iC3H7+CH2OH                               5.00E-01       0.0           0.0             !2012 Zhou & Klippenstein & Simmie & Curran                      
            PLOG  /0.0013                          1.74E+71       -17.07        101579.4   /    !/2 to accord with that measured by Rosado-Reyes and Tsang                       
            PLOG  /0.0132                          4.68E+66       -15.58        100309.7   /    !/2 to accord with that measured by Rosado-Reyes and Tsang                              
            PLOG  /0.1316                          5.05E+61       -13.96        98980.4    /    !/2 to accord with that measured by Rosado-Reyes and Tsang                              
            PLOG  /1.0000                          3.21E+53       -11.35        96321.8    /    !/2 to accord with that measured by Rosado-Reyes and Tsang                           
            PLOG  /10.000                          4.71E+43       -8.27         92856.5    /    !/2 to accord with that measured by Rosado-Reyes and Tsang                              
            PLOG  /100.00                          2.61E+35       -5.71         89772.7    /    !/2 to accord with that measured by Rosado-Reyes and Tsang                              
             DUPLICATE

 iC3H7+CH2OH=>iC4H9OH                              2.00E+101      -26.49        43686
            PLOG  /0.0013                          2.00E+101      -26.49        43686      /    !                       
            PLOG  /0.0132                          4.83E+98       -25.35        46309      /    !                              
            PLOG  /0.1316                          1.40E+93       -23.40        47352      /    !                              
            PLOG  /1.0000                          4.74E+85       -20.98        46649      /    !                            
            PLOG  /10.000                          1.73E+72       -16.91        41818      /    !                              
            PLOG  /100.00                          1.74E+54       -11.69        32338      /    !                              
            DUPLICATE                                                                           !                           

 iC3H7+CH2OH=>iC4H9OH                              1.64E+70       -18.18        18801
            PLOG  /0.0013                          1.64E+70       -18.18        18801      /    !                       
            PLOG  /0.0132                          3.82E+61       -15.37        16415      /    !                              
            PLOG  /0.1316                          1.47E+51       -12.04        13134      /    !                              
            PLOG  /1.0000                          4.43E+41       -9.03         9949       /    !                            
            PLOG  /10.000                          2.21E+31       -5.81         6283       /    !                              
            PLOG  /100.00                          5.02E+22       -3.12         3058       /    !                              
            DUPLICATE                                                                           !                           

 iC4H9OH=C3H6OH-2+CH3                              1.0            0.0	        0.0             !2012 Zhou & Klippenstein & Simmie & Curran                                        
            PLOG  /0.0013                          3.86E+123      -32.00    	138756.2   /    !   
            PLOG  /0.0132                          2.93E+112      -28.32    	136349.9   /    !   
            PLOG  /0.1316                          8.13E+104      -25.73    	136363.8   /    !   
            PLOG  /1.0000                          7.15E+98       -23.67    	136864.6   /    !   
            PLOG  /10.000                          9.95E+24       -2.35    	90670      /    !
            PLOG  /100.00                          5.40E+63       -13.26    	120382.4   /    !   
            DUPLICATE                                                                           !   
 iC4H9OH=C3H6OH-2+CH3                              1.0            0.0	        0.0             !2012 Zhou & Klippenstein & Simmie & Curran                                        
            PLOG  /0.0013                          1.33E+76 	  -18.54    	107707.3   /    !                                         
            PLOG  /0.0132                          2.47E+70 	  -16.65    	106236.9   /    !                                         
            PLOG  /0.1316                          8.83E+65 	  -15.18    	105173.9   /    !                                         
            PLOG  /1.0000                          9.67E+56 	  -12.32    	102314.6   /    !                                         
            PLOG  /10.000                          1.01E+61 	  -11.88    	132938   /    !
            PLOG  /100.00                          2.71E+38 	  -6.52     	95668.1    /    ! 
            DUPLICATE                                                                      


                                                                                           
 iC4H9OH=iC4H8+H2O                                 1.0            0.0	        0.0             !2012 Zhou & Klippenstein & Simmie & Curran
            PLOG  /0.0013                          5.18E+94       -23.93     	112376.8   /    !*2.4 to accord with that measured by Rosado-Reyes and Tsang       
            PLOG  /0.0132                          4.39E+89       -22.19     	112716.5   /    !       
            PLOG  /0.1316                          4.73E+82       -19.93     	111907.8   /    !       
            PLOG  /1.0000                          8.57E+71       -16.66     	107794.8   /    !     
            PLOG  /10.000                          7.51E+51       -10.82     	96534.4    /    !
            PLOG  /100.00                          1.02E+28       -4.00      	80777.5    /    !       
            DUPLICATE                                                                           !                   
 iC4H9OH=iC4H8+H2O                                 1.0            0.0	        0.0               !2012 Zhou & Klippenstein & Simmie & Curran
            PLOG  /0.0013                          1.62E+42       -9.46         74756.9    /    !*2.4 to accord with that measured by Rosado-Reyes and Tsang  
            PLOG  /0.0132                          1.13E+39       -8.40         74154.8    /    !           
            PLOG  /0.1316                          1.38E+32       -6.17         72092.3    /    !           
            PLOG  /1.0000                          1.24E+25       -3.95         69733.8    /    !           
            PLOG  /10.000                          1.22E+17       -1.46         66717.5    /    ! 
            PLOG  /100.00                          1.40E+10        0.61         63605.9    /    !           
            DUPLICATE                                                                      

 iC3H7+CH2OH=C3H6OH-2+CH3                          1.0            0.0	        0.0             !2012 Zhou & Klippenstein & Simmie & Curran
             PLOG  /0.0013                         9.25E+34	  -6.34         19774.6    /    !
             PLOG  /0.0132                         1.00E+58	  -12.95        36225.0    /    !
             PLOG  /0.1316                         1.90E+43	  -8.39         32199.3    /    !
             PLOG  /1.0000                         8.36E+51	  -10.66        43241.1    /    !
             PLOG  /10.000                         2.39E+49	  -9.74         48035.7    /    !
             PLOG  /100.00                         6.65E+35	  -5.81         44934.0    /    !
             DUPLICATE                                                                     
 iC3H7+CH2OH=C3H6OH-2+CH3                          1.0            0.0	        0.0             !2012 Zhou & Klippenstein & Simmie & Curran
             PLOG  /0.0013                         3.89E+84 	  -19.17        88475.1    /    !
             PLOG  /0.0132                         3.30E+21 	  -2.37         15649.6    /    !
             PLOG  /0.1316                         9.61E+117	  -33.28        47783.4    /    !
             PLOG  /1.0000                         7.72E+17 	  -1.46         17088.2    /    !
             PLOG  /10.000                         1.34E+09 	  1.11          15280.0    /    !
             PLOG  /100.00                         8.10E-05 	  4.98          11210.7    /    !
             DUPLICATE                                                                     
                                                                                           
 iC3H7+CH2OH=iC4H8+H2O                             1.0            0.0	           0.0          !2012 Zhou & Klippenstein & Simmie & Curran
             PLOG  /0.0013                         1.13E+58       -13.67        27243.8    /    !
             PLOG  /0.0132                         2.63E+42       -8.87         22918.1    /    !
             PLOG  /0.1316                         4.28E+57       -13.04        38072.9    /    !
             PLOG  /1.0000                         4.31E+51       -11.11        39787.7    /    !
             PLOG  /10.000                         9.48E+45       -9.33         42674.8    /    !
             PLOG  /100.00                         4.93E+29       -4.65         37530.5    /    !
             DUPLICATE                                                                     
 iC3H7+CH2OH=iC4H8+H2O                             1.0            0.0	           0.0          !2012 Zhou & Klippenstein & Simmie & Curran     
             PLOG  /0.0013                         7.47E+15 	  -1.43         4896.0     /    !
             PLOG  /0.0132                         5.18E+152	  -45.25        49792.2    /    !
             PLOG  /0.1316                         8.16E+13 	  -0.81         8564.0     /    !
             PLOG  /1.0000                         3.89E+12 	  -0.57         9084.6     /    !
             PLOG  /10.000                         3.79E+00 	  2.98          5821.9     /    !
             PLOG  /100.00                         2.24E-13 	  6.83          1591.6     /    !
             DUPLICATE
!
!***************************************** C-H bond dissociation reactions *********************************************************
iC4H9OH(+M)<=>iC4H8OH-1+H(+M)                      5.68E+16      -0.297         9.5908E+04      ! S.M. Sarathy et al. 2012
                                              LOW /1.89E+49      -9.561         9.0472E+04 /    ! S.M. Sarathy et al. 2012 
                                        TROE /2.0948E-05 1.1642E+03 1.6818E+10  3.7049E+03 /    
                                                                                                
iC4H9OH(+M)<=>iC4H8OH-2+H(+M)                      1.70e+17      -0.467         9.8199e+04      ! S.M. Sarathy et al. 2012 
                                              LOW /2.48E+46      -8.823         9.0945E+04 /    ! S.M. Sarathy et al. 2012 
                                        TROE /1.4595E-01 1.0340E+03 1.0695E+11 5.1292E+03  /    ! S.M. Sarathy et al. 2012 
                                                                                                
iC4H9OH(+M)<=>iC4H8OH-3+H(+M)                      5.00e+17      -0.462         1.0249e+05      ! S.M. Sarathy et al. 2012
                                              LOW /3.32E+41      -7.365         9.2821E+04 /    ! S.M. Sarathy et al. 2012 
                                        TROE /2.7069E-01 2.7419E+03 1.2872E+2 9.6562E+03   /    ! S.M. Sarathy et al. 2012 
                                                                                                
iC4H9OH(+M)<=>iC4H9O+H(+M)                         1.20e+15       0.016         1.0518e+05      ! S.M. Sarathy et al. 2012
                                              LOW /1.49E+36      -6.144         9.4567E+04 /    ! S.M. Sarathy et al. 2012 
                                        TROE /4.9994E-01 6.2096E+03 6.6550E+02 2.9000E+06  /    ! S.M. Sarathy et al. 2012 


!***************************************** H-abstraction reactions ******************************************************************
!---------------------------------------------------------------------------------------------------------------------------------------------

!----------------------- The rate constants of H-abstraction reaction by H atom caculated by Green maybe too slow -----------------------------

!Used in the final version of Cai's model
iC4H9OH+H=iC4H8OH-1+H2                            8.80e+04       2.70          2915            ! S.M. Sarathy et al. 2012
iC4H9OH+H=iC4H8OH-2+H2                            1.30E+06       2.40          4471            ! 2013 Stranic & R.K. Hanson modified     
iC4H9OH+H=iC4H8OH-3+H2                            6.66e+05       2.54          6756            ! 2013 Stranic & R.K. Hanson modified    
iC4H9OH+H=iC4H9O+H2                               4.72e+02       3.10          8701            ! 2013 Stranic & R.K. Hanson modified

!refit the measrement  Zheng JACS 2014 and Exp. of Hanson 2012   
iC4H9OH +OH = iC4H8OH-1 + H2O                       330890.819533228    2.363884619  -1446.487564                     
iC4H9OH +OH = iC4H8OH-2 + H2O                       1240.98600680115    2.917679338  -2886.842713                     
iC4H9OH +OH = iC4H8OH-3 + H2O                       3920.30946227324    2.742992501  -1593.972031                     
iC4H9OH +OH = iC4H9O + H2O                          167.734428624344    3.07274505   -242.5719389                      

!----------------------------------------------------------------------------------------------------------------                                  
iC4H9OH +CH3 = iC4H8OH-1 + CH4                          1.53e+01	   3.31	   6.95e+03                 !W.H.Green CBS-QB3 caculated                   
iC4H9OH +CH3 = iC4H8OH-2 + CH4                          7.26e+01	   3.13	   6.29e+03                 !W.H.Green CBS-QB3 caculated    7.26e+01 [original]  *0.15 = 1.09e+01  M. Sarathy 2012
!iC4H9OH +CH3 = iC4H8OH-2 + CH4                          3.26e+01	   3.13	   6.29e+03                 !W.H.Green CBS-QB3 caculated    
iC4H9OH +CH3 = iC4H8OH-3 + CH4                          1.55e+01	   3.41	   9.95e+03                 !W.H.Green CBS-QB3 caculated 
iC4H9OH +CH3 = iC4H9O + CH4                             2.88e+01     3.1     6935.9                   !W.H.Green CBS-QB3 caculated   1.44e+01

!iC4H9OH+CH3=iC4H8OH-1+CH4                            1.993e+01    3.370   7.634e+03                !S.Mani.Sarathy 2012
!iC4H9OH+CH3=iC4H8OH-2+CH4                            7.550e-01    3.460   5.481e+03                !S.Mani.Sarathy 2012
!iC4H9OH+CH3=iC4H8OH-3+CH4                            9.060e-01    3.650   7.154e+03                !S.Mani.Sarathy 2012
!iC4H9OH+CH3=iC4H9O+CH4                               1.020e+00    3.570   8.221e+03                !S.Mani.Sarathy 2012

H2O2+ iC4H8OH-3= iC4H9OH+HO2	                          3.01e+00	   3.28	   1.05e+03                 !W.H.Green CBS-QB3 caculated 
H2O2+ iC4H8OH-2= iC4H9OH+HO2	                          2.91e+00	   3.31	   1.41e+03                 !W.H.Green CBS-QB3 caculated 
H2O2+ iC4H8OH-1= iC4H9OH+HO2	                          5.69e+01	   3.04	   1.21e+03                 !W.H.Green CBS-QB3 caculated 
H2O2+ iC4H9O= iC4H9OH+HO2	                              34.6		     3.4 	  -1.14e+03	                !W.H.Green CBS-QB3 caculated 
  
iC4H9OH +O = iC4H8OH-1 + OH                             7.250e+04    2.470   8.760e+02                !S.Mani Sarathy 
iC4H9OH +O = iC4H8OH-2 + OH                             2.760e+05    2.450   2.830e+03                !S.Mani Sarathy 
iC4H9OH +O = iC4H8OH-3 + OH                             1.962e+06    2.430   4.750e+03                !S.Mani Sarathy 
iC4H9OH +O = iC4H9O + OH                                1.460e-03    4.730   1.727e+03                !S.Mani Sarathy 

iC4H9OH +HCO = iC4H8OH-1 + CH2O                         1.000e+07     1.900  1.700e+04                !S.Mani Sarathy 
iC4H9OH +HCO = iC4H8OH-2 + CH2O                         5.450e+06     1.900  1.701e+04                !S.Mani Sarathy 
iC4H9OH +HCO = iC4H8OH-3 + CH2O                         2.040e+05     2.500  1.844e+04                !S.Mani Sarathy 
iC4H9OH +HCO = iC4H9O + CH2O                            3.400e+04     2.500  1.350e+04                !S.Mani Sarathy 

iC4H9OH +C2H5 = iC4H8OH-1 + C2H6                        2.010e+11     0.00   7.900e+03                !S.Mani Sarathy 
iC4H9OH +C2H5 = iC4H8OH-2 + C2H6                        1.010e+11     0.00   7.900e+03                !S.Mani Sarathy 
iC4H9OH +C2H5 = iC4H8OH-3 + C2H6                        1.000e+11     0.00   1.340e+04                !S.Mani Sarathy 
iC4H9OH +C2H5 = iC4H9O + C2H6                           1.670e10      0.00   1.340e+04                !S.Mani Sarathy 

iC4H9OH +O2 = iC4H8OH-1 + HO2                           2.000e+13     0.000  4.680e+04                !S.Mani Sarathy 
iC4H9OH +O2 = iC4H8OH-2 + HO2                           2.000e+13     0.000  4.820e+04                !S.Mani Sarathy 
iC4H9OH +O2 = iC4H8OH-3 + HO2                           6.000e+13     0.000  5.234e+04                !S.Mani Sarathy 
iC4H9OH +O2 = iC4H9O + HO2                              1.000e+13     0.000  5.634e+04                !S.Mani Sarathy 

iC4H9OH +CH2OH = iC4H8OH-1 + CH3OH                      6.000e+01     2.950  1.200e+04                !S.Mani Sarathy 
iC4H9OH +CH2OH = iC4H8OH-2 + CH3OH                      3.010e+01     2.950  1.198e+04                !S.Mani Sarathy 
iC4H9OH +CH2OH = iC4H8OH-3 + CH3OH                      2.020e+02     2.950  1.397e+04                !S.Mani Sarathy 
iC4H9OH +CH2OH = iC4H9O + CH3OH                         1.200e+02     2.760  1.080e+04                !S.Mani Sarathy 

iC4H9OH +CH3O = iC4H8OH-1 + CH3OH                       7.500e+10     0.000  4.500e+03                !S.Mani Sarathy 
iC4H9OH +CH3O = iC4H8OH-2 + CH3OH                       7.250e+10     0.000  4.571e+03                !S.Mani Sarathy 
iC4H9OH +CH3O = iC4H8OH-3 + CH3OH                       4.340e+11     0.000  6.458e+03                !S.Mani Sarathy 
iC4H9OH +CH3O = iC4H9O + CH3OH                          2.300e+10     0.000  2.900e+03                !S.Mani Sarathy 


!***************************************** Radical beta-scission reactions **********************************************************

 iC4H8OH-1= CH3CHCHOH +CH3                              3.37E+18	  -3.051 	  20907.6                 !  caculated 20130126 
            PLOG  /0.006579                             3.37E+18	  -3.051 	  20907.6 /               !        
            PLOG  /0.039474                             2.94E+22	  -3.933   	24108.5 /               ! 
            PLOG  /0.092105                             3.67E+24	  -4.413 	  25895.1 /               !      
            PLOG  /0.263158                             4.23E+27	  -5.136 	  28536.5 /               !  
            PLOG  /1.000000                             7.61E+31	  -6.155 	  32349.9 /               !  
            PLOG  /10.00000                             7.70E+39	  -8.083 	  40074.8 /               ! 
            PLOG  /100.0000                             6.44E+45	  -9.413 	  47205.1 /               !  
 iC4H8OH-1= iC3H7CHO +H                                 1.19E+17	  -2.915 	  21060.9                 !  caculated 20130126 
            PLOG  /0.006579                             1.19E+17	  -2.915 	  21060.9 /               !     
            PLOG  /0.039474                             2.59E+21	  -3.893 	  24472.5 /               !      2.59E+21	    [est. 0.40E+21]
            PLOG  /0.092105                             4.64E+23	  -4.411 	  26343.3 /               !     
            PLOG  /0.263158                             5.68E+26	  -5.134    28987.8 /               !  
            PLOG  /1.000000                             1.57E+31	  -6.195 	  32924.7 /               !     1.57E+31      [est. 0.77E+31]
            PLOG  /10.00000                             2.88E+39	  -8.180 	  40864.0 /               !    
            PLOG  /100.0000                             6.50E+45	  -9.616 	  48377.6 /               !    
iC4H8OH-1= iC3H6CHOH +H                                 7.46E+14	  -2.644   	21322.3                 !  caculated 20130126  
            PLOG  /0.006579                             0.73E+15	  -2.644   	21322.3 /               !      
            PLOG  /0.039474                             1.70E+20	  -3.693 	  24808.1 /               !       
            PLOG  /0.092105                             4.42E+22	  -4.248 	  26742.8 /               !  
            PLOG  /0.263158                             1.03E+26	  -5.040 	  29538.3 /               !  
            PLOG  /1.000000                             4.54E+30	  -6.142 	  33602.1 /               !    
            PLOG  /10.00000                             3.25E+39	  -8.270 	  41968.5 /               !  
            PLOG  /100.0000                             3.12E+46	  -9.857 	  50051.9 /               !  
iC4H8OH-1+O2<=>iC3H7CHO+HO2 	                           3.780E+20      -2.429  3090.                  ! Gabriel da Silva sC2H4OH +O2 =CH3CHO
            PLOG / 0.001                                 5.260E+17      -1.637  838. /
            PLOG / 0.01                                  5.260E+17      -1.637  838. /
            PLOG / 0.1                                   5.260E+17      -1.637  838. /
            PLOG / 1.0                                   5.280E+17      -1.638  839. /
            PLOG / 10.0                                  1.540E+18      -1.771 1120. / 
            PLOG / 100.0                                 3.780E+20      -2.429 3090. /  

iC3H6CHOH+HO2=iC4H8OH-1+O2                 2.11E+06       1.62     15440                        !2009 da Silva and Bozzelli C2H3OH+HO2 calculation


!********************************************************************************* 

iC4H8OH-2= iC4H8 +OH                                    1.02E+08	  -0.253 	  9250.4                  !  caculated 20130126  
            PLOG  /0.006579                             1.02E+08	  -0.253 	  9250.4  /               !       
            PLOG  /0.039474                             1.86E+10	  -0.681 	  10869.7 /               !      
            PLOG  /0.092105                             3.77E+11	  -0.949 	  11875.7 /               !        
            PLOG  /0.263158                             2.80E+13	  -1.352 	  13386.2 /               !       
            PLOG  /1.000000                             1.63E+16	  -1.970 	  15757.6 /               !  
            PLOG  /10.00000                             2.56E+22	  -3.429 	  21442.3 /               !  
            PLOG  /100.0000                             2.18E+28	  -4.805 	  27870.5 /               !  
iC4H8OH-2= iC3H6CHOH +H                                   1             0        0                    !  caculated 20130126
            PLOG  /0.006579                             1.13E-09	   3.483 	  11412.5 /               !       
            PLOG  /0.039474                             1.63E-01	   1.528 	  13592.6 /               !     
            PLOG  /0.092105                             3.97E+02	   0.751 	  15021.3 /               !      
            PLOG  /0.263158                             4.05E+06	  -0.157    17118.7 /               !  
            PLOG  /1.000000                             4.75E+11	  -1.303 	  20383.5 /               !   
            PLOG  /10.00000                             4.33E+21	  -3.627 	  28298.1 /               !  
            PLOG  /100.0000                             1.55E+32	  -6.118 	  38535.4 /               !        