!
! ************************************************************************
! ************************************************************************
! ******************* HCOOH mechanism                      ***************
! ************************************************************************
! ************************************************************************
!
!
 ELEMENTS
    O  H  C  N  AR
 END  
!
 SPECIES    
CO CO2 
H  O  OH  H2  O2  HO2  H2O  H2O2            
HOCO 
!
CH4 CH3 CH2 CH2(S) CH C
CH3OH CH3O CH2OH CH2O HCO 
HOCHO OCHO HOCHOH
AR N2
 END
!
 THERMO
HOCO   equilib    ATcT/AC  1.O  2.H  1.   0.G   200.000  6000.000 1000.        1 !Ruscic 2014/5
 5.39206152E+00 4.11221455E-03-1.48194900E-06 2.39875460E-10-1.43903104E-14    2
-2.36480760E+04-2.23529091E+00 2.92207919E+00 7.62453859E-03 3.29884437E-06    3
-1.07135205E-08 5.11587057E-12-2.33512327E+04 1.12925886E+01-2.21265065E+04    4
HOCHOH            1311  C   1H   3N   0O   2G   298.150  3000.000 1000.00      1 ! PM
 4.86295370E+00 1.23471277E-02-5.95787471E-06 1.34757724E-09-1.18911894E-13    2
-2.71063590E+04 1.47289499E+00 1.70704907E+00 2.28906928E-02-1.86531423E-05    3
 7.73103555E-09-1.19476312E-12-2.63711754E+04 1.72183239E+01                   4
HOCHO FORMIC ACID L 8/88H   2C   1O   2    0G   200.000  6000.000 1000.        1 ! Burcat
 0.46138316E+01 0.64496364E-02-0.22908251E-05 0.36716047E-09-0.21873675E-13    2
-0.47514850E+05 0.84788383E+00 0.38983616E+01-0.35587795E-02 0.35520538E-04    3
-0.43849959E-07 0.17107769E-10-0.46770609E+05 0.73495397E+01-0.45531246E+05    4
OCHO              1104  C   1H   1N   0O   2G   298.150  3000.000 1000.00      1 ! fitted to litt data
 4.41052368E+00 7.50888367E-03-4.25889679E-06 1.12761124E-09-1.14144138E-13    2
-1.70297531E+04 3.43148293E+00 3.62860375E+00 8.12496033E-03-1.41560718E-06    3
-3.27951824E-09 1.61553900E-12-1.67477889E+04 7.83169538E+00                   4
OCHCO                  0C   2O   2H   1     G   350.000  2900.000 1000.00      1 ! PM - pw
 0.49499388E+01 0.10163032E-01-0.55772010E-05 0.14572026E-08-0.14743475E-12    2
-0.90965061E+04 0.25798798E+01 0.33940561E+01 0.14362856E-01-0.88413766E-05    3
 0.16096129E-08 0.32038938E-12-0.86841442E+04 0.10592041E+02                   4
AR        BUR0302 L 6/88AR  1    0    0    0G   200.00   6000.00  1000.        1
 0.25000000E+01 0.00000000E+00 0.00000000E+00 0.00000000E+00 0.00000000E+00    2
-0.74537500E+03 0.43796749E+01 0.25000000E+01 0.00000000E+00 0.00000000E+00    3
 0.00000000E+00 0.00000000E+00-0.74537500E+03 0.43796749E+01 0.00000000E+00    4
CO                RUS 79C   1O   1    0    0G   200.00   6000.00  1000.        1 !BURCAT  
 0.30484859E+01 0.13517281E-02-0.48579405E-06 0.78853644E-10-0.46980746E-14    2 !H298 =-26.41 kcal/mol
-0.14266117E+05 0.60170977E+01 0.35795335E+01-0.61035369E-03 0.10168143E-05    3 !S298 = 47.24 cal/mol/K
 0.90700586E-09-0.90442449E-12-0.14344086E+05 0.35084093E+01-0.13293628E+05    4 !
CO2               L 7/88C   1O   2    0    0G   200.00   6000.00  1000.        1 !BURCAT
 0.46365111E+01 0.27414569E-02-0.99589759E-06 0.16038666E-09-0.91619857E-14    2 !H298 =-94.04 kcal/mol
-0.49024904E+05-0.19348955E+01 0.23568130E+01 0.89841299E-02-0.71220632E-05    3 !S298 = 51.09 cal/mol/K
 0.24573008E-08-0.14288548E-12-0.48371971E+05 0.99009035E+01-0.47328105E+05    4 !   
H                 L 6/94H   1    0    0    0G   200.00   6000.00  1000.        1 !BURCAT
 0.25000000E+01 0.00000000E+00 0.00000000E+00 0.00000000E+00 0.00000000E+00    2 !H298 = 52.10 kcal/mol
 0.25473660E+05-0.44668285E+00 0.25000000E+01 0.00000000E+00 0.00000000E+00    3 !S298 = 27.42 cal/mol/K
 0.00000000E+00 0.00000000E+00 0.25473660E+05-0.44668285E+00 0.26219035E+05    4 !
HCO               T 5/03C   1H   1O   1    0G   200.00   6000.00  1000.        1 !BURCAT
 3.92001542E+00 2.52279324E-03-6.71004164E-07 1.05615948E-10-7.43798261E-15    2 !H298 = 42.296+/-0.3 kJ/mol [ATcT(BURCAT)]
 3.65008461E+03 3.58077496E+00 4.23754610E+00-3.32075257E-03 1.40030264E-05    3 !S298 = 53.60 cal/mol/K
-1.34239995E-08 4.37416208E-12 3.86906718E+03 3.30835309E+00                   4 !
HO2               L 5/89H   1O   2    0    0G   200.00   6000.00  1000.        1 !
 4.17226590E+00 1.88120980E-03-3.46292970E-07 1.94685160E-11 1.76091530E-16    2 !H298 = 12.296+/-0.25 kJ/mol [ATcT(RUS/PIN06)]
 3.02010736E+01 2.95697380E+00 4.30178800E+00-4.74902010E-03 2.11579530E-05    3 !S298 = 54.75 cal/mol/K [BURCAT]
-2.42759610E-08 9.29206700E-12 2.63190983E+02 3.71587740E+00                   4 !Cp [BURCAT]
H2  REF ELEMENT   RUS 78H   2    0    0    0G   200.00   6000.00  1000.        1 !BURCAT
 0.29328305E+01 0.82659802E-03-0.14640057E-06 0.15409851E-10-0.68879615E-15    2 !H298 = 0
-0.81305582E+03-0.10243164E+01 0.23443029E+01 0.79804248E-02-0.19477917E-04    3 !S298 = 31.23 cal/mol/K
 0.20156967E-07-0.73760289E-11-0.91792413E+03 0.68300218E+00 0.00000000E+00    4 !
H2O               L 5/89H   2O   1    0    0G   200.00   6000.00  1000.        1 !BURCAT
 0.26770389E+01 0.29731816E-02-0.77376889E-06 0.94433514E-10-0.42689991E-14    2 !H298 =-57.79 kcal/mol
-0.29885894E+05 0.68825500E+01 0.41986352E+01-0.20364017E-02 0.65203416E-05    3 !S298 = 45.13 cal/mol/K
-0.54879269E-08 0.17719680E-11-0.30293726E+05-0.84900901E+00-0.29084817E+05    4 !
H2O2              T 8/03H   2O   2    0    0G   200.00   6000.00  1000.        1 !
 4.57977305E+00 4.05326003E-03-1.29844730E-06 1.98211400E-10-1.13968792E-14    2 !H298 =-135.77+/-0.07 kJ/mol [ATcT(RUS/PIN06)]
-1.79847939E+04 6.64969660E-01 4.31515149E+00-8.47390622E-04 1.76404323E-05    3 !S298 = 56.05 cal/mol/K [BURCAT]
-2.26762944E-08 9.08950158E-12-1.76843601E+04 3.27373216E+00                   4 !Cp [BURCAT]
O                 L 1/90O   1    0    0    0G   200.00   6000.00  1000.        1 !BURCAT
 2.54363697E+00-2.73162486E-05-4.19029520E-09 4.95481845E-12-4.79553694E-16    2 !H298 = 59.55 kcal/mol
 2.92260120E+04 4.92229457E+00 3.16826710E+00-3.27931884E-03 6.64306396E-06    3 !S298 = 38.49 cal/mol/K
-6.12806624E-09 2.11265971E-12 2.91222592E+04 2.05193346E+00 2.99687009E+04    4 !
O2 REF ELEMENT    RUS 89O   2    0    0    0G   200.00   6000.00  1000.        1 !BURCAT
 3.66096083E+00 6.56365523E-04-1.41149485E-07 2.05797658E-11-1.29913248E-15    2 !H298 = 0
-1.21597725E+03 3.41536184E+00 3.78245636E+00-2.99673415E-03 9.84730200E-06    3 !S298 = 49.03 cal/mol/K
-9.68129508E-09 3.24372836E-12-1.06394356E+03 3.65767573E+00 0.00000000E+00    4 !
OH HYDROXYL RADI  IU3/03O   1H   1    0    0G   200.00   6000.00  1000.        1 !
 2.83853033E+00 1.10741289E-03-2.94000209E-07 4.20698729E-11-2.42289890E-15    2 !H298 = 37.344+/-0.04 kJ/mol [ATcT(RUS/PIN06)]
 3.70056220E+03 5.84513094E+00 3.99198424E+00-2.40106655E-03 4.61664033E-06    3 !S298 = 43.91 cal/mol/K [BURCAT]
-3.87916306E-09 1.36319502E-12 3.37165248E+03-1.03814059E-01                   4 !Cp [BURCAT]
!
 END
!
 REACTIONS
!
 HOCHO(+M)=CO+H2O(+M)                 7.5E14   0.000   68710 ! CHALIN07 
   LOW  /4.1E15 0 52980/                                     !
 HOCHO(+M)=CO2+H2(+M)                 4.5E13   0.000   68240 ! CHALIN07 
   LOW  /1.7E15 0 51110/                                     !
 HOCHO+H=HOCO+H2                      2.3E02   3.272    4858 ! PM 11/2013
 HOCHO+H=OCHO+H2                      4.2E05   2.255   14091 ! PM 11/2013
 HOCHO+H=HOCHOH                       2.5E05   2.357    9783 ! PM 11/2013
 HOCHO+O=HOCO+OH                      5.1E01   3.422    4216 ! PM 11/2013
 HOCHO+O=OCHO+OH                      1.7E05   2.103    9880 ! PM 11/2013
 HOCHO+OH=HOCO+H2O                    7.8E-6   5.570   -2365 ! ANG04 extrapolated
 HOCHO+OH=OCHO+H2O                    4.9E-5   4.910   -5067 ! ANG04 extrapolated 
 HOCHO+HO2=HOCO+H2O2                  4.7E-1   3.975   16787 ! PM 11/2013
 HOCHO+HO2=OCHO+H2O2                  3.9E01   3.080   25206 ! PM 11/2013  
 HOCO+HO2=HOCHO+O2                    4.0E11   0.000       0 ! YUMUC08
 HOCHO+O2=OCHO+HO2                    3.0E13   0.000   63000 ! est 
!
 CO+OH=HOCO                           2.0E20  -3.500    1309 !  1.0 atm interpolation - LPL (JPS,SJK,&JAM 30th Symp)
  PLOG/ 0.013158                      1.7E15  -2.680     859/						  
  PLOG/ 0.13158                       5.9E18  -3.350     887/					
  PLOG/ 1.3158	                      2.6E20  -3.500    1309/						      
  PLOG/ 13.158	                      7.1E20  -3.320    1763/					
  PLOG/ 131.58                        1.1E20  -2.780    2056/	
 HOCO(+M)=CO2+H(+M)                   8.2E11   0.413   35335 ! GOLTUL98
  LOW  / 6.0E26 -3.148 37116 /                               !            
  TROE / 0.39 1.0E-30 1.0E30 /                               ! Fc = 0.39
 HOCO+H=CO2+H2                        3.1E17  -1.3475    555 ! YUFRA08 (300-1000 K, fit)
 HOCO+H=CO+H2O                        6.0E15  -0.525    2125 ! YUFRA08 (300-1000 K, fit)
 HOCO+O=CO2+OH                        9.0E12   0.000       0 ! YUFRA07
 HOCO+OH=CO2+H2O                      4.6E12   0.000     -89 ! RASGLA08a YUFRA05
   DUPLICATE                                                 !
 HOCO+OH=CO2+H2O                      9.5E06   2.000     -89 ! 
   DUPLICATE                                                 !
 CO+H2O2=HOCO+OH                      3.6E04   2.500   28660 ! GLA/MAR09 
 HOCO+HO2=CO2+H2O2                    4.0E13   0.000       0 ! YUMUC08
 HOCO+O2=CO2+HO2                      4.0E09   1.000       0 ! YUMUC06
!
 OCHO=CO2+H                           1.0E10   0.000       0 ! pw
 OCHO+O2=CO2+HO2                      5.0E13   0.000       0 ! est
!
 HOCHOH=HCO+H2O                       2.0E11   0.449   41259 ! PM 11/2013
 HOCHOH+O2=HOCHO+HO2                  7.2E13   0.000    3736 ! est as CH2OH+O2
  DUPLICATE                                               
 HOCHOH+O2=HOCHO+HO2                  2.9E16  -1.500       0 ! 
  DUPLICATE                                               
!
! *****************************************************************************
!    H2/O2 subset                                                             *
! *****************************************************************************
!
! Hong et al., Proc. Comb. Inst. 33:309-316 (2011)
H+O2 = O+OH                                 	1.04E+14   0.00  1.5286E+04

! Baulch et al., J. Phys. Chem. Ref. Data, 21:411 (1992)
O+H2 = H+OH						3.818E+12  0.00  7.948E+03
   DUPLICATE
O+H2 = H+OH						8.792E+14  0.00  1.917E+04
   DUPLICATE

! Michael and Sutherland, J. Phys. Chem. 92:3853 (1988)
H2+OH = H2O+H						0.216E+09  1.51  0.343E+04

! Baulch et al., J. Phys. Chem. Ref. Data, 21:411 (1992)
!OH+OH = O+H2O						3.34E+04   2.42  -1.93E+03
! Updated by Glarborg et al., 2013 to:
! M. Sangwan, L. N. Krasnoperov, The Journal of Physical Chemistry A 116 (2012) 11817–11822.
OH+OH = O+H2O						1.35E+07   1.689  -1166.8
    DUPLICATE
OH+OH = O+H2O					      -2.697E+10   0.567  0.0
    DUPLICATE

! Tsang and Hampson, J. Phys. Chem. Ref. Data, 15:1087 (1986) 
H2+M = H+H+M						4.577E+19 -1.40  1.0438E+05
   H2/2.5/ H2O/12/
   CO/1.9/ CO2/3.8/
   AR/0.0/ 

! Tsang and Hampson, J. Phys. Chem. Ref. Data, 15:1087 (1986) 
H2+AR = H+H+AR                              	5.840E+18 -1.10  1.0438E+05

! Tsang and Hampson, J. Phys. Chem. Ref. Data, 15:1087 (1986) 
O+O+M = O2+M                                	6.165E+15 -0.50  0.000E+00
   H2/2.5/ H2O/12/
   AR/0.0/ 
   CO/1.9/ CO2/3.8/

! Tsang and Hampson, J. Phys. Chem. Ref. Data, 15:1087 (1986) 
O+O+AR = O2+AR                              	1.886E+13  0.00 -1.788E+03

! Tsang and Hampson, J. Phys. Chem. Ref. Data, 15:1087 (1986) 
O+H+M = OH+M                                	4.714E+18 -1.00  0.000E+00
   H2/2.5/  H2O/12/
   AR/0.75/ 
   CO/1.9/  CO2/3.8/

! Srinivasan and Michael, Int. J. Chem. Kinetic. 38 (2006)
! Rate constant is for Ar with efficiencies from Michael et al., J. Phys. Chem. A, 106 (2002)
H2O+M = H+OH+M                              	6.064E+27 -3.322 1.2079E+05
   H2/3.0/  H2O/0.0/
   N2/2.00/
   O2/1.5/
! Efficiencies for CO and CO2 taken from Li et al., Int. J. Chem. Kinet. 36:566-575 (2004)
   CO/1.9/ CO2/3.8/

! Srinivasan and Michael, Int. J. Chem. Kinetic. 38 (2006)
H2O+H2O = H+OH+H2O                          	1.006E+26 -2.44  1.2018E+05

! High-pressure limit from Troe, Proc. Comb. Inst. 28:1463-1469 (2000)
! Low-pressure  limit from Michael et al., J. Phys. Chem. A 106:5297-5313
! Centering factors from Fernandes et al., Phys. Chem. Chem. Phys. 10:4313-4321 (2008)
!=================================================================================
! MAIN BATH GAS IS N2 (comment this reaction otherwise)
!
H+O2(+M) = HO2(+M)                          	4.65084E+12  0.44  0.000E+00
   LOW/6.366E+20 -1.72  5.248E+02/
   TROE/0.5  1E-30  1E+30/
   H2/2.0/ H2O/14/ O2/0.78/ CO/1.9/ CO2/3.8/ AR/0.67/ 
!=================================================================================
! MAIN BATH GAS IS AR (comment this reaction otherwise)
!
!H+O2(+M) = HO2(+M)                         	4.65084E+12  0.44  0.000E+00
!   LOW/9.042E+19 -1.50  4.922E+02/
!   TROE/0.5 1E-30  1E+30/
!   H2/3.0/ H2O/21/ O2/1.1/ CO/2.7/ CO2/5.4/ N2/1.5/
!=================================================================================

! Michael et al., Proc. Comb. Inst. 28:1471 (2000)
!HO2+H = H2+O2                                 	3.659E+06  2.09 -1.451E+03
!Scaled by 0.75
HO2+H = H2+O2                                 	2.750E+06  2.09 -1.451E+03

! Mueller et al., Int. J. Chem. Kinetic. 31:113 (1999) 
HO2+H = OH+OH                               	7.079E+13  0.00  2.950E+02

! Fernandez-Ramos and Varandas, J. Phys. Chem. A 106:4077-4083 (2002)
!HO2+O = O2+OH                               	4.750E+10  1.00 -7.2393E+02
!Scaled by 0.60
HO2+O = O2+OH                               	2.850E+10  1.00 -7.2393E+02

! Keyser, J. Phys. Chem. 92:1193 (1988)
!HO2+OH = H2O+O2                             	2.890E+13   0.00   -4.970E+02
! Updated by Glarborg et al., 2013 to:
! M. P. Burke, S. J. Klippenstein, L. B. Harding, Proceedings of the Combustion Institute 34 (2013) 547–555.
HO2+OH = H2O+O2 				1.93E20    -2.49  5.84E+02
    DUPLICATE
HO2+OH = H2O+O2 			       1.21E+09   1.24   -1.31E+03
    DUPLICATE

! Hippler et al., J. Chem. Phys. 93:1755 (1990)
!HO2+HO2 = H2O2+O2                           	4.200E+14  0.00  1.1982E+04
!   DUPLICATE
!HO2+HO2 = H2O2+O2                           	1.300E+11  0.00 -1.6293E+03
!   DUPLICATE
! Updated by Glarborg et al., 2013 to:
! D. D. Y. Zhou, K. Han, P. Zhang, L. B. Harding, M. J. Davis, R. T. Skodje, The Journal of Physical Chemistry A 116 (2012) 2089–2100.
HO2+HO2 = H2O2+O2                           	1.179E+9   0.7712  -1825
   DUPLICATE
HO2+HO2 = H2O2+O2        			1.251E+12  0.295   7397                   	
   DUPLICATE

! Troe, Combust. Flame,  158:594-601 (2011)
! Rate constant is for Ar
H2O2(+M) = OH+OH(+M)            			2.00E+12   0.90  4.8749E+04
   LOW/2.49E+24 -2.30 4.8749E+04/
   TROE/0.43 1E-30 1E+30/
   H2O/7.5/ CO2/1.6/
   N2/1.5/  O2/1.2/
   H2O2/7.7/
! Efficiencies for H2 and CO taken from Li et al., Int. J. Chem. Kinet. 36:566-575 (2004)
   H2/3.7/ CO/2.8/

! Tsang and Hampson, J. Phys. Chem. Ref. Data, 15:1087 (1986)
H2O2+H = H2O+OH                             	2.410E+13  0.00  3.970E+03
H2O2+H = HO2+H2                             	4.820E+13  0.00  7.950E+03
H2O2+O = OH+HO2                             	9.550E+06  2.00  3.970E+03

! Hong et al., J. Phys. Chem. A  114 (2010) 5718–5727
H2O2+OH = HO2+H2O                           	1.740E+12  0.00  3.180E+02
   DUPLICATE
H2O2+OH = HO2+H2O                           	7.590E+13  0.00  7.270E+03
   DUPLICATE
                                               !
!
! *****************************************************************************
!    CO/CO2 subset                                                            *
! *****************************************************************************
!
 CO+O(+M)=CO2(+M)                     1.8E10   0.000    2384 ! RAS/GLA08a MUL/DRY99
   LOW  /1.35E24 -2.79 4191/                                 ! 
   TROE /1.0 1E-30 1E30 1E30/                                ! 
   H2/2.5/ H2O/12/ CO/1.9/ CO2/3.8/                          !
CO+OH=CO2+H                           8.7E05   1.730    -685 ! 1.3 JPS,SJK,&JAM 30th symp
   PLOG/  0.01315                    2.1E05   1.900   -1064/
   PLOG/  0.1315                     2.5E05   1.880   -1043/
   PLOG/  1.315                      8.7E05   1.730    -685/				
   PLOG/ 13.158                      6.8E06   1.480      48/
   PLOG/ 131.58                      2.3E07   1.350     974/	
 CO+O2=CO2+O                          4.7E12   0.000   60500 ! RAS/GLA08a BAC/MAC05
 CO+HO2=CO2+OH                        1.6E05   2.180   17943 ! RAS/GLA08a YOU/KLI07
!
! *****************************************************************************
!    CH2O subset                                                              *
! *****************************************************************************
! 
 CH2O(+M)=HCO+H(+M)                   8.0E15   0.000   87726 ! RAS/GLA08b TRO05
   LOW  /3.734E15 0.0 73479/                                 !
 CH2O(+M)=CO+H2(+M)                   3.7E13   0.000   71969 ! RAS/GLA08b TRO05
   LOW  /5.661E15 0.0 65849/                                 !
 CH2O+H=HCO+H2                        4.1E08   1.470    2444 ! RAS/GLA08b CEC05
 CH2O+O=HCO+OH                        4.2E11   0.570    2760 ! RAS/GLA08b CEC92,CEC05
 CH2O+O2=HCO+HO2                      2.4E05   2.500   36461 ! RAS/GLA08b CEC05
 CH2O+OH=HCO+H2O                      7.8E07   1.630   -1055 ! RAS/GLA08b VAS/HAN05
 CH2O+HO2=HCO+H2O2                    4.1E04   2.500   10206 ! RAS/GLA08b EIT/FRE98
 CH2O+CH3=HCO+CH4                     3.2E01   3.360    4310 ! RAS/GLA08b CEC05
 HCO=H+CO                             9.9E11  -0.865   16755 ! RAS/GLA08b HIP/STR04 1 atm
!HCO=H+CO               9.83E11*P[bar]^0.865  -0.865   16755 ! RAS/GLA08b HIP/STR04 general pressure dependency
!HCO=H+CO                             1.3E13  -0.865   16755 ! RAS/GLA08b HIP/STR04  20    bar
!HCO=H+CO                             2.9E13  -0.865   16755 ! RAS/GLA08b HIP/STR04  50    bar
!HCO=H+CO                             5.3E13  -0.865   16755 ! RAS/GLA08b HIP/STR04 100    bar
 HCO+H=CO+H2                          1.1E14   0.000       0 ! RAS/GLA08b FRI/DAV02
 HCO+O=CO+OH                          3.0E13   0.000       0 ! RAS/GLA08b CEC92
 HCO+O=CO2+H                          3.0E13   0.000       0 ! RAS/GLA08b CEC92
 HCO+OH=CO+H2O                        1.1E14   0.000       0 ! RAS/GLA08b CEC05
 HCO+O2=CO+HO2                        3.4E12   0.000       0 ! RAS/GLA08b DES/TAT01
 HCO+HO2=CO2+OH+H                     3.0E13   0.000       0 ! RAS/GLA08b NBS86
 HCO+HCO=CO+CH2O                      2.7E13   0.000       0 ! RAS/GLA08b FRI/DAV02
 END
***********************************************************************************************
***********************************************************************************************
***********************************************************************************************
