ELEMENTS
H O C N HE AR
END
SPECIES
! 202 especes
! Biradicals from the base :
B1O
B2CO
B3C
B4CH
B5CH2
B6CH2

! Molecules from the base
H2
H2O
O2
H2O2
CH4
HCHO
CH3OH
CO2
CH3OOH
C2H2T
C2H4Z
C2H6
CH2COZ
CH3CHO
C2H5OH
C2H5OOH
CH3COOOH
C3H6Y
C3H8
nC4H8Y
C4H10
C2H5CHO
C3H7OH
C2H6CO
C3H8CO
C4H6Z2-13
C2H3CHOZ
C2H4OE#3

! Radicals from the base
R1H   !   .h
R2OH   !   .oh
R3OOH   !   .o/oh
R4CH3   !   .ch3
R5CHO   !   .ch//o
R6CH2OH   !   .ch2/oh
R7CH3O   !   .o/ch3
R8CH3OO   !   .o/o/ch3
R9C2HT   !   .c///ch
R10C2H3V   !   .ch//ch2
R11C2H5   !   .ch2/ch3
R12CHCOV   !   .ch//c//o
R13CH2CHO   !   .ch2/ch//o
R14CH3CO   !   .c(//o)/ch3
R15C2H5O   !   .o/ch2/ch3
R16C2H4OOH   !   .ch2/ch2/o/oh
R17C2H5OO   !   .o/o/ch2/ch3
R18CH3COOO   !   .o/o/c(//o)/ch3
R19C3H7   !   .ch2/ch2/ch3
R20C4H9   !   .ch2/ch2/ch2/ch3
R21CH3OCO   !   .c(//o)/o/ch3
R22CO2H   !   .c(//o)/oh
R23C2H3O2B   !   .ch2/c(//o)/oh
R24C2H4OH   !   .ch2/ch2/oh
R25C2H4OH   !   .ch(/oh)/ch3
! Primary molecules :
! Reactants:
C5H12-1
C6H12OA-1
C6H12O2B-1
C4H8OA
C5H10OA
C5H10OK
C6H10O2A
C6H10O2KA
C6H10O3AB
C6H10O3KB
C3H6O3KP
C4H8O3KP
C5H10O3KP
C6H10O4KAP
C6H10O5KPB
C4H6O4KAP
C3H4O4KAP
C4H6O5KPB
C3H4O5KPB
M31C5H10Y
M32C5H10Z
M38C6H10OAZ
M35C6H10OAZ
M34C6H10OAZ
M33C6H10OAZ
C5H8OAZ
C4H6OAZ
M39C6H10OKZ
M45C6H10O2ZB
M42C6H10O2ZB
M41C6H10O2ZB
M40C6H10O2ZB
C5H8O2ZB
C4H6O2ZB
C3H4O2ZB
C5H12O2P
C6H12O3AP
C6H12O4PB
C3H6O2PZ
C4H8O2PZ
C5H10O2PZ
C5H8O3APZ
C4H6O3APZ
C3H4O3APZ
C6H10O3KPZ
C5H8O4PZB
C4H6O4PZB
C3H4O4PZB
C4H6O2A2
C3H4O2A2
C4H6O3KPZ
C3H4O3KPZ
C4H6O3AB
C3H4O3AB
C3H4OKZ
C4H6OKZ
C3H8OL
C3H8O2P
C4H10
C4H10OL
M102C5H12
C6H14
C4H10O2P
C4H8O3AP
C3H6O3AP
C4H8O4PB
C3H6O4PB

! Secondary molecules :
C4H6Z2
C4H8Z
C4H8Y
C6H12Z
C7H14Z
C8H16Z
C6H12OA
C7H14OA
C5H8Z2
C3H4Z2
C3H6OLY
C3H6O2PY
C4H6OAY
C4H8OLY
C6H10Y2
C7H12Y2
C8H14Y2
C4H8O2PY
C5H8OAY
C5H10OLY
C9H16Y2
C5H10O2PY
C6H10OAY
C6H12OLY
C10H18Y2
C3H6Z

! Cyclic primary molecules :
C3H6OE#3
C3H6OE#4
C4H8OE#3
C4H8OE#4
C4H8OE#5
M9C5H10OE#3
M7C5H10OE#3

M12C5H10OE#4
M8C5H10OE#4

!M10C5H10OE#5

M11C5H10OE#6

M22C6H10O2E#3A
M20C6H10O2E#3A
M17C6H10O2E#3A
M13C6H10O2E#3A

M21C6H10O2E#4A
M18C6H10O2E#4A
M14C6H10O2E#4A

M19C6H10O2E#5A
M15C6H10O2E#5A

M16C6H10O2E#6A

M32C6H10O3E#3LK
M30C6H10O3E#3LK
M27C6H10O3E#3LK
M23C6H10O3E#3LK

M31C6H10O3E#4LK
M28C6H10O3E#4LK
M24C6H10O3E#4LK

M29C6H10O3E#5LK
M25C6H10O3E#5LK

M26C6H10O3E#6LK

C4H6O2E#3A
C4H6O2E#4A
C3H4O2E#3A
C4H6O3E#3LK
C4H6O3E#4LK
C3H4O3E#3LK

! Cyclic secondary molecules :
C6H12OE#3
C7H14OE#3
C8H16OE#3
C5H8O4E#4KP
C5H8O4E#5KP
C5H8O4E#6KP

! Benzenic primary molecules :
! Benzenic cyclo ether primary molecules :

! Free radicals :
R26C5H11   !   .ch(/ch2/ch3)2
R27C5H11   !   .ch2/ch2/ch2/ch2/ch3
R28C5H11   !   .ch(/ch3)/ch2/ch2/ch3
R29C6H11OK   !   .c(//o)/ch2/ch2/ch2/ch2/ch3
R30C6H11OA   !   .ch2/ch2/ch2/ch2/ch2/ch//o
R31C6H11OA   !   .ch(/ch3)/ch2/ch2/ch2/ch//o
R32C6H11OA   !   .ch(/ch2/ch3)/ch2/ch2/ch//o
R33C6H11OA   !   .ch(/ch2/ch//o)/ch2/ch2/ch3
R34C6H11OA   !   .ch(/ch//o)/ch2/ch2/ch2/ch3
R35C6H11O2K   !   .o/c(//o)/ch2/ch2/ch2/ch2/ch3
R36C6H11O2B   !   .ch2/ch2/ch2/ch2/ch2/c(//o)/oh
R37C6H11O2B   !   .ch(/ch3)/ch2/ch2/ch2/c(//o)/oh
R38C6H11O2B   !   .ch(/ch2/ch3)/ch2/ch2/c(//o)/oh
R39C6H11O2B   !   .ch(/ch2/c(//o)/oh)/ch2/ch2/ch3
R40C6H11O2B   !   .ch(/c(//o)/oh)/ch2/ch2/ch2/ch3
R41C3H7O2U   !   .o/o/ch2/ch2/ch3
R42C4H9O2U   !   .o/o/ch2/ch2/ch2/ch3
R43C5H11O2U   !   .o/o/ch(/ch2/ch3)2
R44C5H11O2U   !   .o/o/ch2/ch2/ch2/ch2/ch3
R45C5H11O2U   !   .o/o/ch(/ch3)/ch2/ch2/ch3
R46C6H11O3AU   !   .o/o/ch2/ch2/ch2/ch2/ch2/ch//o
R47C4H7OA   !   .ch2/ch2/ch2/ch//o
R48C6H11O3AU   !   .o/o/ch(/ch3)/ch2/ch2/ch2/ch//o
R49C3H5OA   !   .ch2/ch2/ch//o
R50C6H11O3AU   !   .o/o/ch(/ch2/ch3)/ch2/ch2/ch//o
R51C6H11O3AU   !   .o/o/ch(/ch2/ch//o)/ch2/ch2/ch3
R52C6H11O3AU   !   .o/o/ch(/ch//o)/ch2/ch2/ch2/ch3
R53C6H11O4UB   !   .o/o/ch2/ch2/ch2/ch2/ch2/c(//o)/oh
R54C4H7O2B   !   .ch2/ch2/ch2/c(//o)/oh
R55C6H11O4UB   !   .o/o/ch(/ch3)/ch2/ch2/ch2/c(//o)/oh
R56C3H5O2B   !   .ch2/ch2/c(//o)/oh
R57C6H11O4UB   !   .o/o/ch(/ch2/ch3)/ch2/ch2/c(//o)/oh
R58C6H11O4UB   !   .o/o/ch(/ch2/c(//o)/oh)/ch2/ch2/ch3
R59C6H11O4UB   !   .o/o/ch(/c(//o)/oh)/ch2/ch2/ch2/ch3
R60C3H7O2P   !   .ch(/ch3)/ch2/o/oh
R61C3H7O2P   !   .ch2/ch2/ch2/o/oh
R62C4H9O2P   !   .ch(/ch2/o/oh)/ch2/ch3
R63C4H9O2P   !   .ch(/ch3)/ch2/ch2/o/oh
R64C4H9O2P   !   .ch2/ch2/ch2/ch2/o/oh
R65C5H11O2P   !   .ch(/ch3)/ch(/o/oh)/ch2/ch3
R66C5H11O2P   !   .ch2/ch2/ch(/o/oh)/ch2/ch3
R67C5H11O2P   !   .ch(/ch2/o/oh)/ch2/ch2/ch3
R68C5H11O2P   !   .ch(/ch2/ch3)/ch2/ch2/o/oh
R69C5H11O2P   !   .ch(/ch3)/ch2/ch2/ch2/o/oh
R70C5H11O2P   !   .ch2/ch2/ch2/ch2/ch2/o/oh
R71C5H11O2P   !   .ch2/ch(/o/oh)/ch2/ch2/ch3
R72C5H11O2P   !   .ch(/ch2/ch3)/ch(/o/oh)/ch3
R73C5H11O2P   !   .ch(/ch3)/ch2/ch(/o/oh)/ch3
R74C5H11O2P   !   .ch2/ch2/ch2/ch(/o/oh)/ch3
R75C6H11O3AP   !   .ch(/ch2/o/oh)/ch2/ch2/ch2/ch//o
R76C6H11O3AP   !   .ch(/ch2/ch2/o/oh)/ch2/ch2/ch//o
R77C6H11O3AP   !   .ch(/ch2/ch//o)/ch2/ch2/ch2/o/oh
R78C6H11O3AP   !   .ch(/ch//o)/ch2/ch2/ch2/ch2/o/oh
R79C4H7O3AU   !   .o/o/ch2/ch2/ch2/ch//o
R80C4H7OK   !   .c(//o)/ch2/ch2/ch3
R81C6H11O3AP   !   .ch2/ch(/o/oh)/ch2/ch2/ch2/ch//o
R82C6H11O3AP   !   .ch(/ch(/o/oh)/ch3)/ch2/ch2/ch//o
R83C6H11O3AP   !   .ch(/ch2/ch//o)/ch2/ch(/o/oh)/ch3
R84C6H11O3AP   !   .ch(/ch//o)/ch2/ch2/ch(/o/oh)/ch3
R85C6H11O3KP   !   .c(//o)/ch2/ch2/ch2/ch(/o/oh)/ch3
R86C3H5O3AU   !   .o/o/ch2/ch2/ch//o
R87C6H11O3AP   !   .ch(/ch3)/ch(/o/oh)/ch2/ch2/ch//o
R88C6H11O3AP   !   .ch2/ch2/ch(/o/oh)/ch2/ch2/ch//o
R89C6H11O3AP   !   .ch(/ch2/ch//o)/ch(/o/oh)/ch2/ch3
R90C6H11O3AP   !   .ch(/ch//o)/ch2/ch(/o/oh)/ch2/ch3
R91C6H11O3KP   !   .c(//o)/ch2/ch2/ch(/o/oh)/ch2/ch3
R92C6H11O3AP   !   .ch(/ch//o)/ch(/o/oh)/ch2/ch2/ch3
R93C6H11O3KP   !   .c(//o)/ch2/ch(/o/oh)/ch2/ch2/ch3
R94C6H11O3AP   !   .ch(/ch2/ch3)/ch(/o/oh)/ch2/ch//o
R95C6H11O3AP   !   .ch(/ch3)/ch2/ch(/o/oh)/ch2/ch//o
R96C6H11O3AP   !   .ch2/ch2/ch2/ch(/o/oh)/ch2/ch//o
R97C6H11O3KP   !   .c(//o)/ch(/o/oh)/ch2/ch2/ch2/ch3
R98C6H11O3AP   !   .ch(/ch(/o/oh)/ch//o)/ch2/ch2/ch3
R99C6H11O3AP   !   .ch(/ch2/ch3)/ch2/ch(/o/oh)/ch//o
R100C6H11O3AP   !   .ch(/ch3)/ch2/ch2/ch(/o/oh)/ch//o
R101C6H11O3AP   !   .ch2/ch2/ch2/ch2/ch(/o/oh)/ch//o
R102C6H11O4PB   !   .ch(/ch2/o/oh)/ch2/ch2/ch2/c(//o)/oh
R103C6H11O4PB   !   .ch(/ch2/ch2/o/oh)/ch2/ch2/c(//o)/oh
R104C6H11O4PB   !   .ch(/ch2/c(//o)/oh)/ch2/ch2/ch2/o/oh
R105C6H11O4PB   !   .ch(/c(//o)/oh)/ch2/ch2/ch2/ch2/o/oh
R106C4H7O4UB   !   .o/o/ch2/ch2/ch2/c(//o)/oh
R107C6H11O4PB   !   .ch2/ch(/o/oh)/ch2/ch2/ch2/c(//o)/oh
R108C6H11O4PB   !   .ch(/ch(/o/oh)/ch3)/ch2/ch2/c(//o)/oh
R109C6H11O4PB   !   .ch(/ch2/c(//o)/oh)/ch2/ch(/o/oh)/ch3
R110C6H11O4PB   !   .ch(/c(//o)/oh)/ch2/ch2/ch(/o/oh)/ch3
R111C3H5O4UB   !   .o/o/ch2/ch2/c(//o)/oh
R112C6H11O4PB   !   .ch(/ch3)/ch(/o/oh)/ch2/ch2/c(//o)/oh
R113C6H11O4PB   !   .ch2/ch2/ch(/o/oh)/ch2/ch2/c(//o)/oh
R114C6H11O4PB   !   .ch(/ch2/c(//o)/oh)/ch(/o/oh)/ch2/ch3
R115C6H11O4PB   !   .ch(/c(//o)/oh)/ch2/ch(/o/oh)/ch2/ch3
R116C6H11O4PB   !   .ch(/c(//o)/oh)/ch(/o/oh)/ch2/ch2/ch3
R117C6H11O4PB   !   .ch(/ch2/ch3)/ch(/o/oh)/ch2/c(//o)/oh
R118C6H11O4PB   !   .ch(/ch3)/ch2/ch(/o/oh)/ch2/c(//o)/oh
R119C6H11O4PB   !   .ch2/ch2/ch2/ch(/o/oh)/ch2/c(//o)/oh
R120C6H11O4PB   !   .ch(/ch(/o/oh)/c(//o)/oh)/ch2/ch2/ch3
R121C6H11O4PB   !   .ch(/ch2/ch3)/ch2/ch(/o/oh)/c(//o)/oh
R122C6H11O4PB   !   .ch(/ch3)/ch2/ch2/ch(/o/oh)/c(//o)/oh
R123C6H11O4PB   !   .ch2/ch2/ch2/ch2/ch(/o/oh)/c(//o)/oh
R124C3H7O4UP   !   .o/o/ch(/ch3)/ch2/o/oh
R125C3H7O4UP   !   .o/o/ch2/ch2/ch2/o/oh
R126C4H9O4UP   !   .o/o/ch(/ch2/o/oh)/ch2/ch3
R127C4H9O4UP   !   .o/o/ch(/ch3)/ch2/ch2/o/oh
R128C4H9O4UP   !   .o/o/ch2/ch2/ch2/ch2/o/oh
R129C5H11O4UP   !   .o/o/ch(/ch3)/ch(/o/oh)/ch2/ch3
R130C5H11O4UP   !   .o/o/ch2/ch2/ch(/o/oh)/ch2/ch3
R131C3H7O2P   !   .ch(/o/oh)/ch2/ch3
R132C5H11O4UP   !   .o/o/ch(/ch2/o/oh)/ch2/ch2/ch3
R133C5H11O4UP   !   .o/o/ch(/ch2/ch3)/ch2/ch2/o/oh
R134C5H11O4UP   !   .o/o/ch(/ch3)/ch2/ch2/ch2/o/oh
R135C5H11O4UP   !   .o/o/ch2/ch2/ch2/ch2/ch2/o/oh
R136C5H11O4UP   !   .o/o/ch2/ch(/o/oh)/ch2/ch2/ch3
R137C5H11O4UP   !   .o/o/ch(/ch2/ch3)/ch(/o/oh)/ch3
R138C5H11O4UP   !   .o/o/ch(/ch3)/ch2/ch(/o/oh)/ch3
R139C5H11O4UP   !   .o/o/ch2/ch2/ch2/ch(/o/oh)/ch3
R140C3H7O2P   !   .ch2/ch(/o/oh)/ch3
R141C6H11O5AUP   !   .o/o/ch(/ch2/o/oh)/ch2/ch2/ch2/ch//o
R142C6H11O3KP   !   .c(//o)/ch2/ch2/ch2/ch2/ch2/o/oh
R143C6H11O5AUP   !   .o/o/ch(/ch2/ch2/o/oh)/ch2/ch2/ch//o
R144C6H11O5AUP   !   .o/o/ch(/ch2/ch//o)/ch2/ch2/ch2/o/oh
R145C6H11O5AUP   !   .o/o/ch(/ch//o)/ch2/ch2/ch2/ch2/o/oh
R146C4H7O3AP   !   .ch(/ch2/o/oh)/ch2/ch//o
R147C4H7O3AP   !   .ch(/ch//o)/ch2/ch2/o/oh
R148C4H7O3KP   !   .c(//o)/ch2/ch2/ch2/o/oh
R149C6H11O5AUP   !   .o/o/ch2/ch(/o/oh)/ch2/ch2/ch2/ch//o
R150C6H11O5AUP   !   .o/o/ch(/ch(/o/oh)/ch3)/ch2/ch2/ch//o
R151C6H11O5AUP   !   .o/o/ch(/ch2/ch//o)/ch2/ch(/o/oh)/ch3
R152C6H11O5AUP   !   .o/o/ch(/ch//o)/ch2/ch2/ch(/o/oh)/ch3
R153C3H5O3AP   !   .ch(/ch//o)/ch2/o/oh
R154C3H5O3KP   !   .c(//o)/ch2/ch2/o/oh
R155C6H11O5AUP   !   .o/o/ch(/ch3)/ch(/o/oh)/ch2/ch2/ch//o
R156C6H11O5AUP   !   .o/o/ch2/ch2/ch(/o/oh)/ch2/ch2/ch//o
R157C4H7O3AP   !   .ch(/o/oh)/ch2/ch2/ch//o
R158C6H11O5AUP   !   .o/o/ch(/ch2/ch//o)/ch(/o/oh)/ch2/ch3
R159C6H11O5AUP   !   .o/o/ch(/ch//o)/ch2/ch(/o/oh)/ch2/ch3
R160C6H11O5AUP   !   .o/o/ch(/ch//o)/ch(/o/oh)/ch2/ch2/ch3
R161C6H11O5AUP   !   .o/o/ch(/ch2/ch3)/ch(/o/oh)/ch2/ch//o
R162C6H11O5AUP   !   .o/o/ch(/ch3)/ch2/ch(/o/oh)/ch2/ch//o
R163C3H5O3AP   !   .ch(/o/oh)/ch2/ch//o
R164C6H11O5AUP   !   .o/o/ch2/ch2/ch2/ch(/o/oh)/ch2/ch//o
R165C4H7O3AP   !   .ch2/ch(/o/oh)/ch2/ch//o
R166C5H11O2P   !   .ch(/o/oh)/ch2/ch2/ch2/ch3
R167C6H11O5AUP   !   .o/o/ch(/ch(/o/oh)/ch//o)/ch2/ch2/ch3
R168C6H11O5AUP   !   .o/o/ch(/ch2/ch3)/ch2/ch(/o/oh)/ch//o
R169C6H11O5AUP   !   .o/o/ch(/ch3)/ch2/ch2/ch(/o/oh)/ch//o
R170C3H5O3AP   !   .ch2/ch(/o/oh)/ch//o
R171C6H11O5AUP   !   .o/o/ch2/ch2/ch2/ch2/ch(/o/oh)/ch//o
R172C4H7O3AP   !   .ch2/ch2/ch(/o/oh)/ch//o
R173C6H11O6UPB   !   .o/o/ch(/ch2/o/oh)/ch2/ch2/ch2/c(//o)/oh
R174C6H11O6UPB   !   .o/o/ch(/ch2/ch2/o/oh)/ch2/ch2/c(//o)/oh
R175C6H11O6UPB   !   .o/o/ch(/ch2/c(//o)/oh)/ch2/ch2/ch2/o/oh
R176C6H11O6UPB   !   .o/o/ch(/c(//o)/oh)/ch2/ch2/ch2/ch2/o/oh
R177C4H7O4PB   !   .ch(/ch2/o/oh)/ch2/c(//o)/oh
R178C4H7O4PB   !   .ch(/c(//o)/oh)/ch2/ch2/o/oh
R179C6H11O6UPB   !   .o/o/ch2/ch(/o/oh)/ch2/ch2/ch2/c(//o)/oh
R180C6H11O6UPB   !   .o/o/ch(/ch(/o/oh)/ch3)/ch2/ch2/c(//o)/oh
R181C6H11O6UPB   !   .o/o/ch(/ch2/c(//o)/oh)/ch2/ch(/o/oh)/ch3
R182C6H11O6UPB   !   .o/o/ch(/c(//o)/oh)/ch2/ch2/ch(/o/oh)/ch3
R183C3H5O4PB   !   .ch(/c(//o)/oh)/ch2/o/oh
R184C6H11O6UPB   !   .o/o/ch(/ch3)/ch(/o/oh)/ch2/ch2/c(//o)/oh
R185C6H11O6UPB   !   .o/o/ch2/ch2/ch(/o/oh)/ch2/ch2/c(//o)/oh
R186C4H7O4PB   !   .ch(/o/oh)/ch2/ch2/c(//o)/oh
R187C6H11O6UPB   !   .o/o/ch(/ch2/c(//o)/oh)/ch(/o/oh)/ch2/ch3
R188C6H11O6UPB   !   .o/o/ch(/c(//o)/oh)/ch2/ch(/o/oh)/ch2/ch3
R189C6H11O6UPB   !   .o/o/ch(/c(//o)/oh)/ch(/o/oh)/ch2/ch2/ch3
R190C6H11O6UPB   !   .o/o/ch(/ch2/ch3)/ch(/o/oh)/ch2/c(//o)/oh
R191C6H11O6UPB   !   .o/o/ch(/ch3)/ch2/ch(/o/oh)/ch2/c(//o)/oh
R192C3H5O4PB   !   .ch(/o/oh)/ch2/c(//o)/oh
R193C6H11O6UPB   !   .o/o/ch2/ch2/ch2/ch(/o/oh)/ch2/c(//o)/oh
R194C4H7O4PB   !   .ch2/ch(/o/oh)/ch2/c(//o)/oh
R195C6H11O6UPB   !   .o/o/ch(/ch(/o/oh)/c(//o)/oh)/ch2/ch2/ch3
R196C6H11O6UPB   !   .o/o/ch(/ch2/ch3)/ch2/ch(/o/oh)/c(//o)/oh
R197C6H11O6UPB   !   .o/o/ch(/ch3)/ch2/ch2/ch(/o/oh)/c(//o)/oh
R198C3H5O4PB   !   .ch2/ch(/o/oh)/c(//o)/oh
R199C6H11O6UPB   !   .o/o/ch2/ch2/ch2/ch2/ch(/o/oh)/c(//o)/oh
R200C4H7O4PB   !   .ch2/ch2/ch(/o/oh)/c(//o)/oh
R201C3H7O4UP   !   .o/o/ch(/o/oh)/ch2/ch3
R202C3H7O4UP   !   .o/o/ch2/ch(/o/oh)/ch3
R203C3H7O2U   !   .o/o/ch(/ch3)2
R204C4H7O5AUP   !   .o/o/ch(/ch2/o/oh)/ch2/ch//o
R205C4H7O5AUP   !   .o/o/ch(/ch//o)/ch2/ch2/o/oh
R206C3H5O5AUP   !   .o/o/ch(/ch//o)/ch2/o/oh
R207C4H7O5AUP   !   .o/o/ch(/o/oh)/ch2/ch2/ch//o
R208C3H5O5AUP   !   .o/o/ch(/o/oh)/ch2/ch//o
R209C4H7O5AUP   !   .o/o/ch2/ch(/o/oh)/ch2/ch//o
R210C4H7O3AU   !   .o/o/ch(/ch3)/ch2/ch//o
R211C4H7O3KP   !   .c(//o)/ch2/ch(/o/oh)/ch3
R212C5H11O4UP   !   .o/o/ch(/o/oh)/ch2/ch2/ch2/ch3
R213C3H5O5AUP   !   .o/o/ch2/ch(/o/oh)/ch//o
R214C3H5O3AU   !   .o/o/ch(/ch3)/ch//o
R215C4H7O5AUP   !   .o/o/ch2/ch2/ch(/o/oh)/ch//o
R216C4H7O3AU   !   .o/o/ch(/ch//o)/ch2/ch3
R217C4H7O3KP   !   .c(//o)/ch(/o/oh)/ch2/ch3
R218C4H7O6UPB   !   .o/o/ch(/ch2/o/oh)/ch2/c(//o)/oh
R219C4H7O6UPB   !   .o/o/ch(/c(//o)/oh)/ch2/ch2/o/oh
R220C3H5O6UPB   !   .o/o/ch(/c(//o)/oh)/ch2/o/oh
R221C4H7O6UPB   !   .o/o/ch(/o/oh)/ch2/ch2/c(//o)/oh
R222C3H5O6UPB   !   .o/o/ch(/o/oh)/ch2/c(//o)/oh
R223C4H7O6UPB   !   .o/o/ch2/ch(/o/oh)/ch2/c(//o)/oh
R224C4H7O4UB   !   .o/o/ch(/ch3)/ch2/c(//o)/oh
R225C3H5O6UPB   !   .o/o/ch2/ch(/o/oh)/c(//o)/oh
R226C3H5O4UB   !   .o/o/ch(/ch3)/c(//o)/oh
R227C4H7O6UPB   !   .o/o/ch2/ch2/ch(/o/oh)/c(//o)/oh
R228C4H7O4UB   !   .o/o/ch(/c(//o)/oh)/ch2/ch3
R229C3H7   !   .ch(/ch3)2
R230C4H7O3AP   !   .ch(/ch//o)/ch(/o/oh)/ch3
R231C4H7OA   !   .ch(/ch3)/ch2/ch//o
R232C3H5O3KP   !   .c(//o)/ch(/o/oh)/ch3
R233C3H5OA   !   .ch(/ch3)/ch//o
R234C4H7O3AP   !   .ch(/ch3)/ch(/o/oh)/ch//o
R235C4H7OA   !   .ch(/ch//o)/ch2/ch3
R236C4H7O4PB   !   .ch(/c(//o)/oh)/ch(/o/oh)/ch3
R237C4H7O2B   !   .ch(/ch3)/ch2/c(//o)/oh
R238C3H5O2B   !   .ch(/ch3)/c(//o)/oh
R239C4H7O4PB   !   .ch(/ch3)/ch(/o/oh)/c(//o)/oh
R240C4H7O2B   !   .ch(/c(//o)/oh)/ch2/ch3
R241C4H7O5AUP   !   .o/o/ch(/ch//o)/ch(/o/oh)/ch3
R242C4H7O5AUP   !   .o/o/ch(/ch3)/ch(/o/oh)/ch//o
R243C4H7O6UPB   !   .o/o/ch(/c(//o)/oh)/ch(/o/oh)/ch3
R244C4H7O6UPB   !   .o/o/ch(/ch3)/ch(/o/oh)/c(//o)/oh
R245C5H9OA   !   .ch2/ch2/ch2/ch2/ch//o
R246C5H9O2B   !   .ch2/ch2/ch2/ch2/c(//o)/oh
 !Cyclic free radicals:
 !Benzenic free radicals:

! lumped Free radicals :
RC3H5Y
RC4H7Y
RC3H5O
RC5H9O
RC5H9Y
RC6H9OZ
RC5H7OZ
RC4H5OZ
RC3H5O3
RC5H9O3
RC6H9O3Z
RC5H7O3Z
RC4H5O3Z
RC7H13O
RC6H13
RC7H13O3
! lumped Cyclic free radicals :
C5H9OE#4
C5H9OE#5
C5H9OE#6
C5H9O3E#4U
C5H9O3E#5U
C5H9O3E#6U
C5H9O3E#4P
C5H9O3E#5P
C5H9O3E#6P
C5H9O5E#4UP
C5H9O5E#5UP
C5H9O5E#6UP

N2
HE
AR

!Added species
R290C6H11O3AU !ch3/ch2/ch2/ch2/ch2/c(/o/o(.))//o
R291C6H11O3AP !ch3/ch2/ch2/ch(.)/ch2/c(/o/oh)//o
R292C6H11O3AP !ch3/ch2/ch(.)/ch2/ch2/c(/o/oh)//o
R293C6H11O3AP !ch3/ch(.)/ch2/ch2/ch2/c(/o/oh)//o
R300C6H11O5APU !ch3/ch2/ch2/ch(/o/o(.))/ch2/c(/o/oh)//o
R301C6H11O5APU !ch3/ch2/ch(/o/o(.))/ch2/ch2/c(/o/oh)//o
R302C6H11O5APU !ch3/ch(/o/o(.))/ch2/ch2/ch2/c(/o/oh)//o
R305C6H11O5APP !ch3/ch(.)/ch2/ch(/o/oh)/ch2/c(/o/oh)//o
R306C6H11O5APP
R307C6H11O5APP
R310C6H11O7APPU !ch3/ch(/o/o(.))/ch2/ch(/o/oh)/ch2/c(/o/oh)//o
R311C6H11O7APPU
R312C6H11O7APPU
C6H8OK(OOH)2O !ch3/ch(/o/oh)/ch2/c(//o)/ch2/c(/o/oh)//o
C6H11OKOOH !ch3/ch2/ch2/ch2/ch2/c(/o/oh)//o
gcaprolac ! ch2(#1)/ch(/ch2/ch3)/o/c(//o)/ch2/1
dcaprolac ! ch2(#1)/ch(/ch3)/o/c(//o)/ch2/ch2/1

C6H12OOOHP !ch3/ch2/ch2/ch2/ch2/ch(/o/oh)/o(.)
HCOOOH !ch(//o)/o/oh
C6H11OKOH !ch3/ch2/ch2/ch2/ch2/ch(/oh)/o(.)
HCOOH
M10C5H10OE#5
C6H11OKO ! ch3/ch2/ch2/ch2/ch2/c(//o)/o(.)

!Species specific to 1-hexanol
C6H14OL-1
C6H12OLZ

R32C6H13OL
R33C6H13O
R34C6H13OL
R35C6H13OL
R36C6H13OL
R37C6H13OL
R38C6H13OL

R51C6H13O3LU

R53C4H9OL
R55C3H7OL

R302C6H13
R303C5H11OL

END

THERMO ALL ! Nasa coeeficients validated
   300.000  1000.000  5000.000
N2      Ranzi          0N   2C   0H   0O   0G  0300.00   5000.00  1000.00      1 
 0.29266379E+01 0.14879770E-02-0.56847603E-06 0.10097040E-09-0.67533509E-14    2
-0.92279538E+03 0.59805402E+01 0.32986770E+01 0.14082399E-02-0.39632218E-05    3
 0.56415148E-08-0.24448540E-11-0.10209000E+04 0.39503720E+01                   4
HE      Ranzi          0HE  2C   0H   0O   0G  0300.00   5000.00  1000.00      1 
 0.31250001E+01-0.14062505E-02 0.93750049E-06-0.15625008E-09 0.00000000E+00    2
-0.94068758E+03-0.24124152E+01 0.25000000E+01 0.00000000E+00 0.00000000E+00    3
 0.00000000E+00 0.00000000E+00-0.74537510E+03 0.91534890E+00                   4
AR                120186AR  1               G  0300.00   5000.00  1000.00      1 
 0.25000000E+01 0.00000000E+00 0.00000000E+00 0.00000000E+00 0.00000000E+00    2
-0.74537500E+03 0.43660010E+01 0.25000000E+01 0.00000000E+00 0.00000000E+00    3
 0.00000000E+00 0.00000000E+00-0.74537500E+03 0.43660010E+01                   4
B1O                     O   1               G  0300.00   5000.00  1000.00      1 
 0.25420608E+01-0.27550620E-04-0.31028030E-08 0.45510670E-11-0.43680520E-15    2
 0.29230798E+05 0.49203024E+01 0.29464290E+01-0.16381660E-02 0.24210320E-05    3
-0.16028430E-08 0.38906960E-12 0.29147640E+05 0.29639950E+01                   4
B2CO                    C   1O   1          G  0300.00   5000.00  1000.00      1 
 0.30250777E+01 0.14426890E-02-0.56308280E-06 0.10185810E-09-0.69109520E-14    2
-0.14268350E+05 0.61082221E+01 0.32624520E+01 0.15119410E-02-0.38817550E-05    3
 0.55819440E-08-0.24749510E-11-0.14310540E+05 0.48488970E+01                   4
B3C                     C   1               G  0300.00   5000.00  1000.00      1 
 0.26020867E+01-0.17870810E-03 0.90870410E-07-0.11499330E-10 0.33108440E-15    2
 0.85421542E+05 0.41951820E+01 0.24985850E+01 0.80857770E-04-0.26976970E-06    3
 0.30407290E-09-0.11066520E-12 0.85458780E+05 0.47534590E+01                   4
B4CH                    C   1H   1          G  0300.00   5000.00  1000.00      1 
 0.21962223E+01 0.23403810E-02-0.70582010E-06 0.90075820E-10-0.38550400E-14    2
 0.70867231E+05 0.91783754E+01 0.32002020E+01 0.20728760E-02-0.51344310E-05    3
 0.57338900E-08-0.19555330E-11 0.70452590E+05 0.33315880E+01                   4
B5CH2       CH2t        C   1H   2          G  0300.00   5000.00  1000.00      1 
 0.36364065E+01 0.19330570E-02-0.16870160E-06-0.10098990E-09 0.18082560E-13    2
 0.45341345E+05 0.21565691E+01 0.37622370E+01 0.11598190E-02 0.24895850E-06    3
 0.88008360E-09-0.73324350E-12 0.45367910E+05 0.17125780E+01                   4
B6CH2       CH2s        C   1H   2          G  0300.00   5000.00  1000.00      1 
 0.35528875E+01 0.20667880E-02-0.19141160E-06-0.11046730E-09 0.20213500E-13    2
 0.49849761E+05 0.16865777E+01 0.39712650E+01-0.16990890E-03 0.10253690E-05    3
 0.24925510E-08-0.19812660E-11 0.49893680E+05 0.57532070E-01                   4
H2                      C   0H   2O   0     G  0300.00   5000.00  1000.00      1 
 0.24971474E+01 0.17808300E-02-0.78001300E-06 0.14843700E-09-0.10340100E-13    2
-0.68234235E+03 0.12869436E+01 0.34385300E+01 0.14431400E-03-0.10819100E-06    3
 0.21683900E-09-0.55430700E-13-0.10374900E+04-0.39268200E+01                   4
H2O                     C   0H   2O   1     G  0300.00   5000.00  1000.00      1 
 0.26801061E+01 0.30962300E-02-0.93139300E-06 0.13486500E-09-0.77000700E-14    2
-0.29923344E+05 0.67805263E+01 0.39755900E+01-0.44183400E-03 0.24559600E-05    3
-0.12443100E-08 0.22670200E-12-0.30281000E+05 0.77152300E-01                   4
O2                      C   0H   0O   2     G  0300.00   5000.00  1000.00      1 
 0.31892691E+01 0.15665700E-02-0.69065700E-06 0.13208200E-09-0.92357700E-14    2
-0.10481021E+04 0.59950619E+01 0.30880900E+01 0.16034200E-02-0.53455000E-06    3
 0.28079300E-10 0.29889900E-14-0.99382800E+03 0.66106900E+01                   4
H2O2                    C   0H   2O   2     G  0300.00   5000.00  1014.00      1 
 0.54773971E+01 0.26651844E-02-0.69380576E-06 0.91391290E-10-0.49374605E-14    2
-0.18283678E+05-0.43962599E+01 0.25265224E+01 0.11391788E-01-0.89037285E-05    3
 0.24531213E-08 0.71861218E-13-0.17565287E+05 0.10559545E+02                   4
CH4                     C   1H   4O   0     G  0300.00   5000.00  1015.00      1 
 0.16080835E+01 0.10308000E-01-0.37122800E-05 0.61418500E-09-0.38674800E-13    2
-0.10063071E+05 0.10071468E+02 0.23195400E+01 0.65473800E-02-0.74805100E-06    3
 0.26091200E-08-0.19553700E-11-0.99976400E+04 0.72496500E+01                   4
HCHO                    C   1H   2O   1     G  0300.00   5000.00  1017.00      1 
 0.29042038E+01 0.66440700E-02-0.24528200E-05 0.41283600E-09-0.26304000E-13    2
-0.14432160E+05 0.75065132E+01 0.24104900E+01 0.70204100E-02-0.42294700E-05    3
 0.44011600E-08-0.21264700E-11-0.14111400E+05 0.10624600E+02                   4
CH3OH                   C   1H   4O   1     G  0300.00   5000.00  1000.00      1 
 0.32627246E+01 0.10543200E-01-0.35491800E-05 0.55874300E-09-0.33923600E-13    2
-0.25878233E+05 0.67000165E+01 0.18595700E+01 0.12531200E-01-0.44710700E-05    3
 0.17329300E-08-0.87106600E-12-0.25287900E+05 0.14683500E+02                   4
CO2                     C   1H   0O   2     G  0300.00   5000.00  1005.00      1 
 0.41987613E+01 0.34902790E-02-0.14128319E-05 0.25480168E-09-0.17105678E-13    2
-0.48815924E+05 0.56029982E+00 0.22576122E+01 0.95094619E-02-0.73198071E-05    3
 0.20577067E-08 0.10320530E-13-0.48371590E+05 0.10295759E+02                   4
CH3OOH                  C   1H   4O   2     G  0300.00   5000.00  1000.00      1 
 0.63680096E+01 0.10737200E-01-0.36866600E-05 0.58882700E-09-0.36126600E-13    2
-0.18426159E+05-0.60734207E+01 0.30921800E+01 0.18022300E-01-0.71186200E-05    3
-0.14797800E-08 0.14551700E-11-0.17430000E+05 0.11302800E+02                   4
C2H2T                   C   2H   2O   0     G  0300.00   5000.00  1000.00      1 
 0.44367752E+01 0.53760390E-02-0.19128170E-05 0.32863790E-09-0.21567100E-13    2
 0.25667661E+05-0.28003713E+01 0.20135620E+01 0.15190450E-01-0.16163190E-04    3
 0.90789920E-08-0.19127460E-11 0.26124440E+05 0.88053780E+01                   4
C2H4Z                   C   2H   4O   0     G  0300.00   5000.00  1090.00      1 
 0.31468137E+00 0.16729900E-01-0.68090900E-05 0.12292200E-08-0.82392800E-13    2
 0.57249924E+04 0.20362720E+02 0.13181000E+01 0.14446000E-01-0.27433500E-05    3
-0.31083500E-08 0.15277200E-11 0.52681700E+04 0.14723300E+02                   4
C2H6                    C   2H   6O   0     G  0300.00   5000.00  1250.00      1 
 0.31208901E+00 0.21192800E-01-0.80856000E-05 0.13933900E-08-0.90300500E-13    2
-0.10989168E+05 0.20203763E+02 0.97545400E+00 0.18811000E-01-0.14645300E-05    3
-0.63824700E-08 0.28406700E-11-0.11311100E+05 0.16551400E+02                   4
CH2COZ                  C   2H   2O   1     G  0300.00   5000.00  1000.00      1 
 0.53510982E+01 0.69420900E-02-0.25006100E-05 0.41323100E-09-0.25969200E-13    2
-0.78085131E+04-0.37920071E+01 0.29953900E+01 0.12354000E-01-0.40649900E-05    3
-0.33460800E-08 0.22415200E-11-0.71509700E+04 0.85371600E+01                   4
CH3CHO                  C   2H   4O   1     G  0300.00   5000.00  1000.00      1 
 0.42598131E+01 0.13486034E-01-0.49183418E-05 0.82515045E-09-0.52694343E-13    2
-0.22171378E+05 0.29348441E+01 0.26969113E+01 0.12334284E-01 0.56746453E-05    3
-0.10870704E-07 0.37648248E-11-0.21403137E+05 0.12530482E+02                   4
C2H5OH                  C   2H   6O   1     G  0300.00   5000.00  1000.00      1 
 0.56164566E+01 0.15991600E-01-0.53679900E-05 0.84342200E-09-0.51140600E-13    2
-0.31041092E+05-0.35594342E+01 0.93985800E+00 0.26181100E-01-0.92513400E-05    3
-0.34582500E-08 0.26209800E-11-0.29623800E+05 0.21263400E+02                   4
C2H5OOH                 C   2H   6O   2     G  0300.00   5000.00  1000.00      1 
 0.88514772E+01 0.14699100E-01-0.46663000E-05 0.70312900E-09-0.41326200E-13    2
-0.23452357E+05-0.17367764E+02 0.20326600E+01 0.32031000E-01-0.17977300E-04    3
 0.23876600E-08 0.10720600E-11-0.21506300E+05 0.18218700E+02                   4
CH3COOOH                C   2H   4O   3     G  0300.00   5000.00  1000.00      1 
 0.78670144E+01 0.14240000E-01-0.48164800E-05 0.76239600E-09-0.46551400E-13    2
-0.43975651E+05-0.96455346E+01 0.21956900E+00 0.35313100E-01-0.22427600E-04    3
 0.32288800E-08 0.16724300E-11-0.41954800E+05 0.29661700E+02                   4
! Ajout produits en C2+
!C3H4                   0C   3H   4          G  0300.00   5000.00  1000.00
! .54693928E+01  .12151568E-01 -.43443515E-05 .71433565E-09  -.44747395E-13
! .19852377E+05 -.54474335E+01  .22271647E+01 .19307628E-01  -.70081351E-05
!-.27282026E-08  .21393857E-11  .20828311E+05 .11726395E+02
C3H6Y                  0C   3H   6          G  0300.00   5000.00  1000.00      1 
 0.49872203E+01 0.17638993E-01-0.62266308E-05 0.10151433E-08-0.63235977E-13    2
-0.25513278E+03-0.23657645E+01 0.55598283E+00 0.27091531E-01-0.10752104E-04    3
-0.97539210E-09 0.14314721E-11 0.11570190E+04 0.21344173E+02                   4
C3H8                   0C   3H   8          G  0300.00   5000.00  1000.00      1 
 0.54507892E+01 0.22160569E-01-0.77296281E-05 0.12495476E-08-0.77377605E-13    2
-0.15616278E+05-0.61404570E+01-0.31831896E+00 0.34746405E-01-0.12885018E-04    3
-0.35057037E-08 0.30165358E-11-0.13851594E+05 0.24514595E+02                   4
C4H6Z2-13              0C   4H   6          G  0300.00   5000.00  1000.00      1 
 0.80531918E+01 0.17540889E-01-0.61760657E-05 0.10047656E-08-0.62479542E-13    2
 0.95684505E+04-0.18621006E+02-0.29224473E+00 0.38725201E-01-0.16706719E-04    3
-0.81080902E-08 0.67421541E-11 0.11749236E+05 0.24444702E+02                   4
nC4H8Y                 0C   4H   8          G  0300.00   5000.00  1000.00      1 
 0.92846959E+01 0.19871462E-01-0.65713975E-05 0.10258888E-08-0.62160394E-13    2
-0.46494721E+04-0.24153239E+02-0.25869742E+00 0.41475497E-01-0.21317686E-04    3
 0.27918821E-08 0.85749311E-12-0.16180958E+04 0.26720718E+02                   4
C4H10                  0C   4H  10          G  0300.00   5000.00  1000.00      1 
 0.76947071E+01 0.27767614E-01-0.96156327E-05 0.15456056E-08-0.95281279E-13    2
-0.19406615E+05-0.16133800E+02 0.59979584E-01 0.44005580E-01-0.15532127E-04    3
-0.52806315E-08 0.40442116E-11-0.17040045E+05 0.24565849E+02                   4
C2H3CHOZ               0C   3H   4O   1     G  0300.00   5000.00  1000.00      1 
 0.12217825E+02 0.12961588E-01-0.61774654E-05 0.12501405E-08-0.91169971E-13    2
-0.15124886E+05-0.41653439E+02 0.93137437E+00 0.35574418E-01-0.33347264E-04    3
 0.28398034E-07-0.11395644E-10-0.10614329E+05 0.21059492E+02                   4
C2H5CHO                0C   3H   6O   1     G  0300.00   5000.00  1000.00      1 
 0.69979400E+01 0.18013448E-01-0.62295217E-05 0.10005839E-08-0.61661722E-13    2
-0.25678625E+05-0.94601873E+01 0.28277023E+01 0.25430365E-01-0.61913220E-05    3
-0.50245177E-08 0.26785609E-11-0.24271348E+05 0.13234089E+02                   4
C3H7OH                 0C   3H   8O   1     G  0300.00   5000.00  1000.00      1 
 0.71550135E+01 0.22466624E-01-0.76292372E-05 0.12097231E-08-0.73884075E-13    2
-0.34674318E+05-0.94533208E+01 0.12350693E+01 0.34453284E-01-0.10589133E-04    3
-0.54856804E-08 0.35146994E-11-0.32804938E+05 0.22268148E+02                   4
C2H6CO                 0C   3H   6O   1     G  0300.00   5000.00  1000.00      1 
 0.59760364E+01 0.19679097E-01-0.70154574E-05 0.11513579E-08-0.72035416E-13    2
-0.29341092E+05-0.53765277E+01 0.14577827E+01 0.28063715E-01-0.90218518E-05    3
-0.24536706E-08 0.16730232E-11-0.27794104E+05 0.19218454E+02                   4
C3H8CO                 0C   4H   8O   1     G  0300.00   5000.00  1000.00      1 
 0.87691958E+01 0.24174010E-01-0.83446403E-05 0.13376648E-08-0.82271822E-13    2
-0.32998668E+05-0.17683410E+02 0.27316518E+01 0.35815358E-01-0.11085016E-04    3
-0.44516226E-08 0.28435873E-11-0.31006189E+05 0.14949604E+02                   4
R1H                     C   0H   1O   0     G  0300.00   5000.00  1000.00      1 
 0.25138341E+01 0.40918900E-05-0.24108200E-08 0.57187400E-12-0.47091700E-16    2
 0.25465395E+05-0.53483352E+00 0.25198400E+01-0.25992000E-04 0.62789800E-07    3
-0.62995100E-10 0.22397300E-13 0.25464100E+05-0.56325900E+00                   4
R2OH                    C   0H   1O   1     G  0300.00   5000.00  1000.00      1 
 0.30414122E+01 0.65138500E-03-0.19121800E-07-0.10419600E-12 0.40033000E-16    2
 0.39041469E+04 0.48177896E+01 0.36778000E+01-0.21415300E-03 0.57023100E-07    3
 0.17140400E-09-0.18462900E-13 0.36359700E+04 0.11967000E+01                   4
R3OOH                   C   0H   1O   2     G  0300.00   5000.00  1000.00      1 
 0.47320384E+01 0.13862200E-02-0.16845700E-06 0.10584300E-10-0.24071700E-15    2
-0.25323960E+03-0.76677917E+00 0.18485400E+01 0.10798800E-01-0.85463500E-05    3
 0.41841500E-09 0.14407400E-11 0.32644600E+03 0.13431900E+02                   4
R4CH3                   C   1H   3O   0     G  0300.00   5000.00  1022.00      1 
 0.29723911E+01 0.62323902E-02-0.22190404E-05 0.36577827E-09-0.23059057E-13    2
 0.15991251E+05 0.43951618E+01 0.30266473E+01 0.45351572E-02 0.68535263E-06    3
-0.10839243E-08 0.15497636E-12 0.16144411E+05 0.47042460E+01                   4
R5CHO                   C   1H   1O   1     G  0300.00   5000.00  1000.00      1 
 0.36073098E+01 0.28745262E-02-0.98788814E-06 0.15840323E-09-0.97735176E-14    2
 0.32342028E+04 0.54449718E+01 0.35340273E+01 0.20234731E-02 0.51834081E-06    3
-0.37246076E-09-0.60802857E-13 0.33738574E+04 0.62388401E+01                   4
R6CH2OH                 C   1H   3O   1     G  0300.00   5000.00  1000.00      1 
 0.59488653E+01 0.36190501E-02-0.61752752E-06 0.59083634E-10-0.25698620E-14    2
-0.36338402E+04-0.62813047E+01 0.21966424E+01 0.12963202E-01-0.12844380E-04    3
 0.99145598E-08-0.32231225E-11-0.22978342E+04 0.13927387E+02                   4
R7CH3O                  C   1H   3O   1     G  0300.00   5000.00  1000.00      1 
 0.64455491E+01 0.32218200E-02-0.50980100E-06 0.44196600E-10-0.16936600E-14    2
-0.81072981E+03-0.12161207E+02 0.24057100E+00 0.18774700E-01-0.21318000E-04    3
 0.18115100E-07-0.66123000E-11 0.13582700E+04 0.21181500E+02                   4
R8CH3OO                 C   1H   3O   2     G  0300.00   5000.00  1000.00      1 
 0.97570050E+01 0.30427600E-02-0.46705400E-06 0.38783300E-10-0.13942500E-14    2
-0.19046129E+04-0.26874937E+02 0.14893700E+01 0.24077600E-01-0.23874800E-04    3
 0.15153500E-07-0.44755700E-11 0.76434000E+03 0.16985200E+02                   4
R9C2HT                  C   2H   1O   0     G  0300.00   5000.00  1000.00      1 
 0.40394303E+01 0.36123355E-02-0.95946029E-06 0.12793372E-09-0.69526612E-14    2